[VMEM] WARNING: physical memory size is smaller than virtual memory size.

*** ChampSim Multicore Out-of-Order Simulator ***
Warmup Instructions: 100000
Simulation Instructions: 100000
Number of CPUs: 1
Page size: 4096

Off-chip DRAM Size: 16 GiB Channels: 1 Width: 64-bit Data Rate: 3205 MT/s
[INIT]   → Fetched instr_id: 0 ip: 0x7e7ad3dae540 stop_fetch: false
[INIT]   → Fetched instr_id: 1 ip: 0x7e7ad3dae543 stop_fetch: false
[INIT]   → Fetched instr_id: 2 ip: 0x7e7ad3daf1d0 stop_fetch: false
[INIT]   → Fetched instr_id: 3 ip: 0x7e7ad3daf1d4 stop_fetch: false
[INIT]   → Fetched instr_id: 4 ip: 0x7e7ad3daf1d5 stop_fetch: false
[INIT]   → Fetched instr_id: 5 ip: 0x7e7ad3daf1dc stop_fetch: false
[INIT]   → Fetched instr_id: 6 ip: 0x7e7ad3daf1e3 stop_fetch: false
[INIT]   → Fetched instr_id: 7 ip: 0x7e7ad3daf1e8 stop_fetch: false
[INIT]   → Fetched instr_id: 8 ip: 0x7e7ad3daf1ed stop_fetch: false
[INIT]   → Fetched instr_id: 9 ip: 0x7e7ad3daf1f1 stop_fetch: false
[INIT]   → Fetched instr_id: 10 ip: 0x7e7ad3daf1f4 stop_fetch: false
[INIT]   → Fetched instr_id: 11 ip: 0x7e7ad3daf1f6 stop_fetch: false
[INIT]   → Fetched instr_id: 12 ip: 0x7e7ad3daf1f8 stop_fetch: false
[INIT]   → Fetched instr_id: 13 ip: 0x7e7ad3daf1fa stop_fetch: false
[INIT]   → Fetched instr_id: 14 ip: 0x7e7ad3daf1fc stop_fetch: false
[INIT]   → Fetched instr_id: 15 ip: 0x7e7ad3daf1fd stop_fetch: false
[INIT]   → Fetched instr_id: 16 ip: 0x7e7ad3daf204 stop_fetch: false
[INIT]   → Fetched instr_id: 17 ip: 0x7e7ad3daf20b stop_fetch: false
[INIT]   → Fetched instr_id: 18 ip: 0x7e7ad3daf20f stop_fetch: false
[INIT]   → Fetched instr_id: 19 ip: 0x7e7ad3daf211 stop_fetch: false
[INIT]   → Fetched instr_id: 20 ip: 0x7e7ad3daf218 stop_fetch: false
[INIT]   → Fetched instr_id: 21 ip: 0x7e7ad3daf21f stop_fetch: false
[INIT]   → Fetched instr_id: 22 ip: 0x7e7ad3daf225 stop_fetch: false
[INIT]   → Fetched instr_id: 23 ip: 0x7e7ad3daf22b stop_fetch: false
[INIT]   → Fetched instr_id: 24 ip: 0x7e7ad3daf22f stop_fetch: false
[INIT]   → Fetched instr_id: 25 ip: 0x7e7ad3daf236 stop_fetch: false
[INIT]   → Fetched instr_id: 26 ip: 0x7e7ad3daf239 stop_fetch: false
[INIT]   → Fetched instr_id: 27 ip: 0x7e7ad3daf23c stop_fetch: false
[INIT]   → Fetched instr_id: 28 ip: 0x7e7ad3daf243 stop_fetch: false
[INIT]   → Fetched instr_id: 29 ip: 0x7e7ad3daf24a stop_fetch: false
[INIT]   → Fetched instr_id: 30 ip: 0x7e7ad3daf251 stop_fetch: false
[INIT]   → Fetched instr_id: 31 ip: 0x7e7ad3daf258 stop_fetch: false
[INIT]   → Fetched instr_id: 32 ip: 0x7e7ad3daf25b stop_fetch: false
[INIT]   → Fetched instr_id: 33 ip: 0x7e7ad3daf277 stop_fetch: false
[INIT]   → Fetched instr_id: 34 ip: 0x7e7ad3daf27b stop_fetch: false
[INIT]   → Fetched instr_id: 35 ip: 0x7e7ad3daf266 stop_fetch: false
[INIT]   → Fetched instr_id: 36 ip: 0x7e7ad3daf26a stop_fetch: false
[INIT]   → Fetched instr_id: 37 ip: 0x7e7ad3daf26e stop_fetch: false
[INIT]   → Fetched instr_id: 38 ip: 0x7e7ad3daf272 stop_fetch: false
[INIT]   → Fetched instr_id: 39 ip: 0x7e7ad3daf275 stop_fetch: false
[INIT]   → Fetched instr_id: 40 ip: 0x7e7ad3daf277 stop_fetch: false
[INIT]   → Fetched instr_id: 41 ip: 0x7e7ad3daf27b stop_fetch: false
[INIT]   → Fetched instr_id: 42 ip: 0x7e7ad3daf266 stop_fetch: false
[INIT]   → Fetched instr_id: 43 ip: 0x7e7ad3daf26a stop_fetch: false
[INIT]   → Fetched instr_id: 44 ip: 0x7e7ad3daf26e stop_fetch: false
[INIT]   → Fetched instr_id: 45 ip: 0x7e7ad3daf272 stop_fetch: false
[INIT]   → Fetched instr_id: 46 ip: 0x7e7ad3daf275 stop_fetch: false
[INIT]   → Fetched instr_id: 47 ip: 0x7e7ad3daf277 stop_fetch: false
[INIT]   → Fetched instr_id: 48 ip: 0x7e7ad3daf27b stop_fetch: false
[INIT]   → Fetched instr_id: 49 ip: 0x7e7ad3daf27d stop_fetch: false
[INIT]   → Fetched instr_id: 50 ip: 0x7e7ad3daf284 stop_fetch: false
[INIT]   → Fetched instr_id: 51 ip: 0x7e7ad3daf288 stop_fetch: false
[INIT]   → Fetched instr_id: 52 ip: 0x7e7ad3daf28a stop_fetch: false
[INIT]   → Fetched instr_id: 53 ip: 0x7e7ad3daf28d stop_fetch: false
[INIT]   → Fetched instr_id: 54 ip: 0x7e7ad3daf290 stop_fetch: false
[INIT]   → Fetched instr_id: 55 ip: 0x7e7ad3daf294 stop_fetch: false
[INIT]   → Fetched instr_id: 56 ip: 0x7e7ad3daf2a8 stop_fetch: false
[INIT]   → Fetched instr_id: 57 ip: 0x7e7ad3daf2ab stop_fetch: false
[INIT]   → Fetched instr_id: 58 ip: 0x7e7ad3daf2ae stop_fetch: false
[INIT]   → Fetched instr_id: 59 ip: 0x7e7ad3daf2b1 stop_fetch: false
[INIT]   → Fetched instr_id: 60 ip: 0x7e7ad3daf2b4 stop_fetch: false
[INIT]   → Fetched instr_id: 61 ip: 0x7e7ad3daf3a0 stop_fetch: false
[INIT]   → Fetched instr_id: 62 ip: 0x7e7ad3daf3a5 stop_fetch: false
[INIT]   → Fetched instr_id: 63 ip: 0x7e7ad3daf3a8 stop_fetch: false
[INIT]   → Fetched instr_id: 64 ip: 0x7e7ad3daf3ac stop_fetch: false
[INIT]   → Fetched instr_id: 65 ip: 0x7e7ad3daf6d0 stop_fetch: false
[INIT]   → Fetched instr_id: 66 ip: 0x7e7ad3daf6d5 stop_fetch: false
[INIT]   → Fetched instr_id: 67 ip: 0x7e7ad3daf6d8 stop_fetch: false
[INIT]   → Fetched instr_id: 68 ip: 0x7e7ad3daf6dc stop_fetch: false
[INIT]   → Fetched instr_id: 69 ip: 0x7e7ad3daf6e2 stop_fetch: false
[INIT]   → Fetched instr_id: 70 ip: 0x7e7ad3daf6e7 stop_fetch: false
[INIT]   → Fetched instr_id: 71 ip: 0x7e7ad3daf6ea stop_fetch: false
[INIT]   → Fetched instr_id: 72 ip: 0x7e7ad3daf6ed stop_fetch: false
[INIT]   → Fetched instr_id: 73 ip: 0x7e7ad3daf266 stop_fetch: false
[INIT]   → Fetched instr_id: 74 ip: 0x7e7ad3daf26a stop_fetch: false
[INIT]   → Fetched instr_id: 75 ip: 0x7e7ad3daf26e stop_fetch: false
[INIT]   → Fetched instr_id: 76 ip: 0x7e7ad3daf272 stop_fetch: false
[INIT]   → Fetched instr_id: 77 ip: 0x7e7ad3daf275 stop_fetch: false
[INIT]   → Fetched instr_id: 78 ip: 0x7e7ad3daf277 stop_fetch: false
[INIT]   → Fetched instr_id: 79 ip: 0x7e7ad3daf27b stop_fetch: false
[INIT]   → Fetched instr_id: 80 ip: 0x7e7ad3daf266 stop_fetch: false
[INIT]   → Fetched instr_id: 81 ip: 0x7e7ad3daf26a stop_fetch: false
[INIT]   → Fetched instr_id: 82 ip: 0x7e7ad3daf26e stop_fetch: false
[INIT]   → Fetched instr_id: 83 ip: 0x7e7ad3daf272 stop_fetch: false
[INIT]   → Fetched instr_id: 84 ip: 0x7e7ad3daf275 stop_fetch: false
[INIT]   → Fetched instr_id: 85 ip: 0x7e7ad3daf277 stop_fetch: false
[INIT]   → Fetched instr_id: 86 ip: 0x7e7ad3daf27b stop_fetch: true
[INIT]   → Fetched instr_id: 87 ip: 0x7e7ad3daf266 stop_fetch: false
[INIT]   → Fetched instr_id: 88 ip: 0x7e7ad3daf26a stop_fetch: false
[INIT]   → Fetched instr_id: 89 ip: 0x7e7ad3daf26e stop_fetch: false
[INIT]   → Fetched instr_id: 90 ip: 0x7e7ad3daf272 stop_fetch: false
[INIT]   → Fetched instr_id: 91 ip: 0x7e7ad3daf275 stop_fetch: false
[INIT]   → Fetched instr_id: 92 ip: 0x7e7ad3daf277 stop_fetch: false
[INIT]   → Fetched instr_id: 93 ip: 0x7e7ad3daf27b stop_fetch: true
[INIT]   → Fetched instr_id: 94 ip: 0x7e7ad3daf266 stop_fetch: false
[INIT]   → Fetched instr_id: 95 ip: 0x7e7ad3daf26a stop_fetch: false
[INIT]   → Fetched instr_id: 96 ip: 0x7e7ad3daf26e stop_fetch: false
[INIT]   → Fetched instr_id: 97 ip: 0x7e7ad3daf272 stop_fetch: false
[INIT]   → Fetched instr_id: 98 ip: 0x7e7ad3daf275 stop_fetch: false
[INIT]   → Fetched instr_id: 99 ip: 0x7e7ad3daf277 stop_fetch: false
[INIT]   → Fetched instr_id: 100 ip: 0x7e7ad3daf27b stop_fetch: true
[INIT]   → Fetched instr_id: 101 ip: 0x7e7ad3daf266 stop_fetch: false
[INIT]   → Fetched instr_id: 102 ip: 0x7e7ad3daf26a stop_fetch: false
[INIT]   → Fetched instr_id: 103 ip: 0x7e7ad3daf26e stop_fetch: false
[INIT]   → Fetched instr_id: 104 ip: 0x7e7ad3daf272 stop_fetch: false
[INIT]   → Fetched instr_id: 105 ip: 0x7e7ad3daf275 stop_fetch: false
[INIT]   → Fetched instr_id: 106 ip: 0x7e7ad3daf277 stop_fetch: false
[INIT]   → Fetched instr_id: 107 ip: 0x7e7ad3daf27b stop_fetch: true
[INIT]   → Fetched instr_id: 108 ip: 0x7e7ad3daf266 stop_fetch: false
[INIT]   → Fetched instr_id: 109 ip: 0x7e7ad3daf26a stop_fetch: false
[INIT]   → Fetched instr_id: 110 ip: 0x7e7ad3daf26e stop_fetch: false
[INIT]   → Fetched instr_id: 111 ip: 0x7e7ad3daf272 stop_fetch: false
[INIT]   → Fetched instr_id: 112 ip: 0x7e7ad3daf275 stop_fetch: false
[INIT]   → Fetched instr_id: 113 ip: 0x7e7ad3daf277 stop_fetch: false
[INIT]   → Fetched instr_id: 114 ip: 0x7e7ad3daf27b stop_fetch: true
[INIT]   → Fetched instr_id: 115 ip: 0x7e7ad3daf266 stop_fetch: false
[INIT]   → Fetched instr_id: 116 ip: 0x7e7ad3daf26a stop_fetch: false
[INIT]   → Fetched instr_id: 117 ip: 0x7e7ad3daf26e stop_fetch: false
[INIT]   → Fetched instr_id: 118 ip: 0x7e7ad3daf272 stop_fetch: false
[INIT]   → Fetched instr_id: 119 ip: 0x7e7ad3daf275 stop_fetch: false
[INIT]   → Fetched instr_id: 120 ip: 0x7e7ad3daf277 stop_fetch: false
[INIT]   → Fetched instr_id: 121 ip: 0x7e7ad3daf27b stop_fetch: true
[INIT]   → Fetched instr_id: 122 ip: 0x7e7ad3daf266 stop_fetch: false
[INIT]   → Fetched instr_id: 123 ip: 0x7e7ad3daf26a stop_fetch: false
[INIT]   → Fetched instr_id: 124 ip: 0x7e7ad3daf26e stop_fetch: false
[INIT]   → Fetched instr_id: 125 ip: 0x7e7ad3daf272 stop_fetch: false
[INIT]   → Fetched instr_id: 126 ip: 0x7e7ad3daf275 stop_fetch: false
[INIT]   → Fetched instr_id: 127 ip: 0x7e7ad3daf277 stop_fetch: false
[INIT]   → Fetched instr_id: 128 ip: 0x7e7ad3daf27b stop_fetch: false
[INIT]   → Fetched instr_id: 129 ip: 0x7e7ad3daf27d stop_fetch: false
[INIT]   → Fetched instr_id: 130 ip: 0x7e7ad3daf284 stop_fetch: false
[INIT]   → Fetched instr_id: 131 ip: 0x7e7ad3daf288 stop_fetch: false
[INIT]   → Fetched instr_id: 132 ip: 0x7e7ad3daf28a stop_fetch: false
[INIT]   → Fetched instr_id: 133 ip: 0x7e7ad3daf28d stop_fetch: false
[INIT]   → Fetched instr_id: 134 ip: 0x7e7ad3daf290 stop_fetch: false
[INIT]   → Fetched instr_id: 135 ip: 0x7e7ad3daf294 stop_fetch: false
[INIT]   → Fetched instr_id: 136 ip: 0x7e7ad3daf296 stop_fetch: false
[INIT]   → Fetched instr_id: 137 ip: 0x7e7ad3daf299 stop_fetch: false
[INIT]   → Fetched instr_id: 138 ip: 0x7e7ad3daf29c stop_fetch: false
[INIT]   → Fetched instr_id: 139 ip: 0x7e7ad3daf29f stop_fetch: false
[INIT]   → Fetched instr_id: 140 ip: 0x7e7ad3daf266 stop_fetch: false
[INIT]   → Fetched instr_id: 141 ip: 0x7e7ad3daf26a stop_fetch: false
[INIT]   → Fetched instr_id: 142 ip: 0x7e7ad3daf26e stop_fetch: false
[INIT]   → Fetched instr_id: 143 ip: 0x7e7ad3daf272 stop_fetch: false
[INIT]   → Fetched instr_id: 144 ip: 0x7e7ad3daf275 stop_fetch: false
[INIT]   → Fetched instr_id: 145 ip: 0x7e7ad3daf277 stop_fetch: false
[INIT]   → Fetched instr_id: 146 ip: 0x7e7ad3daf27b stop_fetch: false
[INIT]   → Fetched instr_id: 147 ip: 0x7e7ad3daf27d stop_fetch: false
[INIT]   → Fetched instr_id: 148 ip: 0x7e7ad3daf284 stop_fetch: false
[INIT]   → Fetched instr_id: 149 ip: 0x7e7ad3daf288 stop_fetch: false
[INIT]   → Fetched instr_id: 150 ip: 0x7e7ad3daf28a stop_fetch: false
[INIT]   → Fetched instr_id: 151 ip: 0x7e7ad3daf28d stop_fetch: false
[INIT]   → Fetched instr_id: 152 ip: 0x7e7ad3daf290 stop_fetch: false
[INIT]   → Fetched instr_id: 153 ip: 0x7e7ad3daf294 stop_fetch: false
[INIT]   → Fetched instr_id: 154 ip: 0x7e7ad3daf296 stop_fetch: false
[INIT]   → Fetched instr_id: 155 ip: 0x7e7ad3daf299 stop_fetch: false
[INIT]   → Fetched instr_id: 156 ip: 0x7e7ad3daf29c stop_fetch: false
[INIT]   → Fetched instr_id: 157 ip: 0x7e7ad3daf29f stop_fetch: true
[INIT]   → Fetched instr_id: 158 ip: 0x7e7ad3daf266 stop_fetch: false
[INIT]   → Fetched instr_id: 159 ip: 0x7e7ad3daf26a stop_fetch: false
[INIT]   → Fetched instr_id: 160 ip: 0x7e7ad3daf26e stop_fetch: false
[INIT]   → Fetched instr_id: 161 ip: 0x7e7ad3daf272 stop_fetch: false
[INIT]   → Fetched instr_id: 162 ip: 0x7e7ad3daf275 stop_fetch: false
[INIT]   → Fetched instr_id: 163 ip: 0x7e7ad3daf277 stop_fetch: false
[INIT]   → Fetched instr_id: 164 ip: 0x7e7ad3daf27b stop_fetch: false
[INIT]   → Fetched instr_id: 165 ip: 0x7e7ad3daf266 stop_fetch: false
[INIT]   → Fetched instr_id: 166 ip: 0x7e7ad3daf26a stop_fetch: false
[INIT]   → Fetched instr_id: 167 ip: 0x7e7ad3daf26e stop_fetch: false
[INIT]   → Fetched instr_id: 168 ip: 0x7e7ad3daf272 stop_fetch: false
[INIT]   → Fetched instr_id: 169 ip: 0x7e7ad3daf275 stop_fetch: false
[INIT]   → Fetched instr_id: 170 ip: 0x7e7ad3daf277 stop_fetch: false
[INIT]   → Fetched instr_id: 171 ip: 0x7e7ad3daf27b stop_fetch: false
[INIT]   → Fetched instr_id: 172 ip: 0x7e7ad3daf27d stop_fetch: false
[INIT]   → Fetched instr_id: 173 ip: 0x7e7ad3daf284 stop_fetch: false
[INIT]   → Fetched instr_id: 174 ip: 0x7e7ad3daf288 stop_fetch: false
[INIT]   → Fetched instr_id: 175 ip: 0x7e7ad3daf28a stop_fetch: false
[INIT]   → Fetched instr_id: 176 ip: 0x7e7ad3daf28d stop_fetch: false
[INIT]   → Fetched instr_id: 177 ip: 0x7e7ad3daf290 stop_fetch: false
[INIT]   → Fetched instr_id: 178 ip: 0x7e7ad3daf294 stop_fetch: false
[INIT]   → Fetched instr_id: 179 ip: 0x7e7ad3daf296 stop_fetch: false
[INIT]   → Fetched instr_id: 180 ip: 0x7e7ad3daf299 stop_fetch: false
[INIT]   → Fetched instr_id: 181 ip: 0x7e7ad3daf29c stop_fetch: false
[INIT]   → Fetched instr_id: 182 ip: 0x7e7ad3daf29f stop_fetch: true
[INIT]   → Fetched instr_id: 183 ip: 0x7e7ad3daf266 stop_fetch: false
[INIT]   → Fetched instr_id: 184 ip: 0x7e7ad3daf26a stop_fetch: false
[INIT]   → Fetched instr_id: 185 ip: 0x7e7ad3daf26e stop_fetch: false
[INIT]   → Fetched instr_id: 186 ip: 0x7e7ad3daf272 stop_fetch: false
[INIT]   → Fetched instr_id: 187 ip: 0x7e7ad3daf275 stop_fetch: false
[INIT]   → Fetched instr_id: 188 ip: 0x7e7ad3daf277 stop_fetch: false
[INIT]   → Fetched instr_id: 189 ip: 0x7e7ad3daf27b stop_fetch: false
[INIT]   → Fetched instr_id: 190 ip: 0x7e7ad3daf27d stop_fetch: false
[INIT]   → Fetched instr_id: 191 ip: 0x7e7ad3daf284 stop_fetch: false
[INIT]   → Fetched instr_id: 192 ip: 0x7e7ad3daf288 stop_fetch: false
[INIT]   → Fetched instr_id: 193 ip: 0x7e7ad3daf28a stop_fetch: false
[INIT]   → Fetched instr_id: 194 ip: 0x7e7ad3daf28d stop_fetch: false
[INIT]   → Fetched instr_id: 195 ip: 0x7e7ad3daf290 stop_fetch: false
[INIT]   → Fetched instr_id: 196 ip: 0x7e7ad3daf294 stop_fetch: false
[INIT]   → Fetched instr_id: 197 ip: 0x7e7ad3daf296 stop_fetch: false
[INIT]   → Fetched instr_id: 198 ip: 0x7e7ad3daf299 stop_fetch: false
[INIT]   → Fetched instr_id: 199 ip: 0x7e7ad3daf29c stop_fetch: false
[INIT]   → Fetched instr_id: 200 ip: 0x7e7ad3daf29f stop_fetch: true
[INIT]   → Fetched instr_id: 201 ip: 0x7e7ad3daf266 stop_fetch: false
[INIT]   → Fetched instr_id: 202 ip: 0x7e7ad3daf26a stop_fetch: false
[INIT]   → Fetched instr_id: 203 ip: 0x7e7ad3daf26e stop_fetch: false
[INIT]   → Fetched instr_id: 204 ip: 0x7e7ad3daf272 stop_fetch: false
[INIT]   → Fetched instr_id: 205 ip: 0x7e7ad3daf275 stop_fetch: false
[INIT]   → Fetched instr_id: 206 ip: 0x7e7ad3daf277 stop_fetch: false
[INIT]   → Fetched instr_id: 207 ip: 0x7e7ad3daf27b stop_fetch: false
[INIT]   → Fetched instr_id: 208 ip: 0x7e7ad3daf266 stop_fetch: false
[INIT]   → Fetched instr_id: 209 ip: 0x7e7ad3daf26a stop_fetch: false
[INIT]   → Fetched instr_id: 210 ip: 0x7e7ad3daf26e stop_fetch: false
[INIT]   → Fetched instr_id: 211 ip: 0x7e7ad3daf272 stop_fetch: false
[INIT]   → Fetched instr_id: 212 ip: 0x7e7ad3daf275 stop_fetch: false
[INIT]   → Fetched instr_id: 213 ip: 0x7e7ad3daf277 stop_fetch: false
[INIT]   → Fetched instr_id: 214 ip: 0x7e7ad3daf27b stop_fetch: false
[INIT]   → Fetched instr_id: 215 ip: 0x7e7ad3daf266 stop_fetch: false
[INIT]   → Fetched instr_id: 216 ip: 0x7e7ad3daf26a stop_fetch: false
[INIT]   → Fetched instr_id: 217 ip: 0x7e7ad3daf26e stop_fetch: false
[INIT]   → Fetched instr_id: 218 ip: 0x7e7ad3daf272 stop_fetch: false
[INIT]   → Fetched instr_id: 219 ip: 0x7e7ad3daf275 stop_fetch: false
[INIT]   → Fetched instr_id: 220 ip: 0x7e7ad3daf277 stop_fetch: false
[INIT]   → Fetched instr_id: 221 ip: 0x7e7ad3daf27b stop_fetch: true
[INIT]   → Fetched instr_id: 222 ip: 0x7e7ad3daf266 stop_fetch: false
[INIT]   → Fetched instr_id: 223 ip: 0x7e7ad3daf26a stop_fetch: false
[INIT]   → Fetched instr_id: 224 ip: 0x7e7ad3daf26e stop_fetch: false
[INIT]   → Fetched instr_id: 225 ip: 0x7e7ad3daf272 stop_fetch: false
[INIT]   → Fetched instr_id: 226 ip: 0x7e7ad3daf275 stop_fetch: false
[INIT]   → Fetched instr_id: 227 ip: 0x7e7ad3daf2c8 stop_fetch: false
[INIT]   → Fetched instr_id: 228 ip: 0x7e7ad3daf2cf stop_fetch: false
[INIT]   → Fetched instr_id: 229 ip: 0x7e7ad3daf2d6 stop_fetch: false
[INIT]   → Fetched instr_id: 230 ip: 0x7e7ad3daf2d9 stop_fetch: false
[INIT]   → Fetched instr_id: 231 ip: 0x7e7ad3daf2dd stop_fetch: false
[INIT]   → Fetched instr_id: 232 ip: 0x7e7ad3daf2e3 stop_fetch: false
[INIT]   → Fetched instr_id: 233 ip: 0x7e7ad3daf2ea stop_fetch: false
[INIT]   → Fetched instr_id: 234 ip: 0x7e7ad3daf2ed stop_fetch: false
[INIT]   → Fetched instr_id: 235 ip: 0x7e7ad3daf2ef stop_fetch: false
[INIT]   → Fetched instr_id: 236 ip: 0x7e7ad3daf2f3 stop_fetch: false
[INIT]   → Fetched instr_id: 237 ip: 0x7e7ad3daf2fa stop_fetch: false
[INIT]   → Fetched instr_id: 238 ip: 0x7e7ad3daf2fd stop_fetch: false
[INIT]   → Fetched instr_id: 239 ip: 0x7e7ad3daf303 stop_fetch: false
[INIT]   → Fetched instr_id: 240 ip: 0x7e7ad3daf30a stop_fetch: false
[INIT]   → Fetched instr_id: 241 ip: 0x7e7ad3daf30d stop_fetch: false
[INIT]   → Fetched instr_id: 242 ip: 0x7e7ad3daf30f stop_fetch: false
[INIT]   → Fetched instr_id: 243 ip: 0x7e7ad3daf313 stop_fetch: false
[INIT]   → Fetched instr_id: 244 ip: 0x7e7ad3daf31a stop_fetch: false
[INIT]   → Fetched instr_id: 245 ip: 0x7e7ad3daf31d stop_fetch: false
[INIT]   → Fetched instr_id: 246 ip: 0x7e7ad3daf31f stop_fetch: false
[INIT]   → Fetched instr_id: 247 ip: 0x7e7ad3daf323 stop_fetch: false
[INIT]   → Fetched instr_id: 248 ip: 0x7e7ad3daf32a stop_fetch: false
[INIT]   → Fetched instr_id: 249 ip: 0x7e7ad3daf32d stop_fetch: false
[INIT]   → Fetched instr_id: 250 ip: 0x7e7ad3daf330 stop_fetch: false
[INIT]   → Fetched instr_id: 251 ip: 0x7e7ad3daf332 stop_fetch: false
[INIT]   → Fetched instr_id: 252 ip: 0x7e7ad3daf336 stop_fetch: false
[INIT]   → Fetched instr_id: 253 ip: 0x7e7ad3daf33d stop_fetch: false
[INIT]   → Fetched instr_id: 254 ip: 0x7e7ad3daf340 stop_fetch: false
[INIT]   → Fetched instr_id: 255 ip: 0x7e7ad3daf346 stop_fetch: false
[INIT]   → Fetched instr_id: 256 ip: 0x7e7ad3daf34d stop_fetch: false
[INIT]   → Fetched instr_id: 257 ip: 0x7e7ad3daf350 stop_fetch: false
[INIT]   → Fetched instr_id: 258 ip: 0x7e7ad3daf352 stop_fetch: false
[INIT]   → Fetched instr_id: 259 ip: 0x7e7ad3daf356 stop_fetch: false
[INIT]   → Fetched instr_id: 260 ip: 0x7e7ad3daf35d stop_fetch: false
[INIT]   → Fetched instr_id: 261 ip: 0x7e7ad3daf360 stop_fetch: false
[INIT]   → Fetched instr_id: 262 ip: 0x7e7ad3daf362 stop_fetch: false
[INIT]   → Fetched instr_id: 263 ip: 0x7e7ad3daf366 stop_fetch: false
[INIT]   → Fetched instr_id: 264 ip: 0x7e7ad3daf36d stop_fetch: false
[INIT]   → Fetched instr_id: 265 ip: 0x7e7ad3daf370 stop_fetch: false
[INIT]   → Fetched instr_id: 266 ip: 0x7e7ad3daf373 stop_fetch: false
[INIT]   → Fetched instr_id: 267 ip: 0x7e7ad3daf379 stop_fetch: false
[INIT]   → Fetched instr_id: 268 ip: 0x7e7ad3daf37d stop_fetch: false
[INIT]   → Fetched instr_id: 269 ip: 0x7e7ad3daf380 stop_fetch: false
[INIT]   → Fetched instr_id: 270 ip: 0x7e7ad3daf7f7 stop_fetch: false
[INIT]   → Fetched instr_id: 271 ip: 0x7e7ad3daf7fa stop_fetch: false
[INIT]   → Fetched instr_id: 272 ip: 0x7e7ad3daf7fe stop_fetch: false
[INIT]   → Fetched instr_id: 273 ip: 0x7e7ad3daf386 stop_fetch: false
[INIT]   → Fetched instr_id: 274 ip: 0x7e7ad3daf389 stop_fetch: false
[INIT]   → Fetched instr_id: 275 ip: 0x7e7ad3daf3ef stop_fetch: false
[INIT]   → Fetched instr_id: 276 ip: 0x7e7ad3daf3f6 stop_fetch: false
[INIT]   → Fetched instr_id: 277 ip: 0x7e7ad3daf3fb stop_fetch: false
[INIT]   → Fetched instr_id: 278 ip: 0x7e7ad3daf401 stop_fetch: false
[INIT]   → Fetched instr_id: 279 ip: 0x7e7ad3daf408 stop_fetch: false
[INIT]   → Fetched instr_id: 280 ip: 0x7e7ad3daf40b stop_fetch: false
[INIT]   → Fetched instr_id: 281 ip: 0x7e7ad3daf40d stop_fetch: false
[INIT]   → Fetched instr_id: 282 ip: 0x7e7ad3daf414 stop_fetch: false
[INIT]   → Fetched instr_id: 283 ip: 0x7e7ad3daf419 stop_fetch: false
[INIT]   → Fetched instr_id: 284 ip: 0x7e7ad3daf41f stop_fetch: false
[INIT]   → Fetched instr_id: 285 ip: 0x7e7ad3daf427 stop_fetch: false
[INIT]   → Fetched instr_id: 286 ip: 0x7e7ad3daf42d stop_fetch: false
[INIT]   → Fetched instr_id: 287 ip: 0x7e7ad3daf434 stop_fetch: false
[INIT]   → Fetched instr_id: 288 ip: 0x7e7ad3daf437 stop_fetch: false
[INIT]   → Fetched instr_id: 289 ip: 0x7e7ad3daf43d stop_fetch: false
[INIT]   → Fetched instr_id: 290 ip: 0x7e7ad3daf444 stop_fetch: false
[INIT]   → Fetched instr_id: 291 ip: 0x7e7ad3daf447 stop_fetch: false
[INIT]   → Fetched instr_id: 292 ip: 0x7e7ad3daf449 stop_fetch: false
[INIT]   → Fetched instr_id: 293 ip: 0x7e7ad3daf44e stop_fetch: false
[INIT]   → Fetched instr_id: 294 ip: 0x7e7ad3daf454 stop_fetch: false
[INIT]   → Fetched instr_id: 295 ip: 0x7e7ad3daf45b stop_fetch: false
[INIT]   → Fetched instr_id: 296 ip: 0x7e7ad3daf45e stop_fetch: false
[INIT]   → Fetched instr_id: 297 ip: 0x7e7ad3daf460 stop_fetch: false
[INIT]   → Fetched instr_id: 298 ip: 0x7e7ad3daf468 stop_fetch: false
[INIT]   → Fetched instr_id: 299 ip: 0x7e7ad3daf46e stop_fetch: false
[INIT]   → Fetched instr_id: 300 ip: 0x7e7ad3daf471 stop_fetch: false
[INIT]   → Fetched instr_id: 301 ip: 0x7e7ad3daf477 stop_fetch: false
[INIT]   → Fetched instr_id: 302 ip: 0x7e7ad3daf47b stop_fetch: false
[INIT]   → Fetched instr_id: 303 ip: 0x7e7ad3daf47e stop_fetch: false
[INIT]   → Fetched instr_id: 304 ip: 0x7e7ad3daf481 stop_fetch: false
[INIT]   → Fetched instr_id: 305 ip: 0x7e7ad3daf485 stop_fetch: false
[INIT]   → Fetched instr_id: 306 ip: 0x7e7ad3daf48c stop_fetch: false
[INIT]   → Fetched instr_id: 307 ip: 0x7e7ad3daf490 stop_fetch: false
[INIT]   → Fetched instr_id: 308 ip: 0x7e7ad3daf493 stop_fetch: false
[INIT]   → Fetched instr_id: 309 ip: 0x7e7ad3daf496 stop_fetch: false
[INIT]   → Fetched instr_id: 310 ip: 0x7e7ad3daf4b3 stop_fetch: false
[INIT]   → Fetched instr_id: 311 ip: 0x7e7ad3daf4b6 stop_fetch: false
[INIT]   → Fetched instr_id: 312 ip: 0x7e7ad3daf4b8 stop_fetch: false
[INIT]   → Fetched instr_id: 313 ip: 0x7e7ad3daf4a0 stop_fetch: false
[INIT]   → Fetched instr_id: 314 ip: 0x7e7ad3daf4a3 stop_fetch: false
[INIT]   → Fetched instr_id: 315 ip: 0x7e7ad3daf4a7 stop_fetch: false
[INIT]   → Fetched instr_id: 316 ip: 0x7e7ad3daf4aa stop_fetch: false
[INIT]   → Fetched instr_id: 317 ip: 0x7e7ad3daf4ae stop_fetch: false
[INIT]   → Fetched instr_id: 318 ip: 0x7e7ad3daf4b1 stop_fetch: false
[INIT]   → Fetched instr_id: 319 ip: 0x7e7ad3daf4b3 stop_fetch: false
[INIT]   → Fetched instr_id: 320 ip: 0x7e7ad3daf4b6 stop_fetch: false
[INIT]   → Fetched instr_id: 321 ip: 0x7e7ad3daf4b8 stop_fetch: false
[INIT]   → Fetched instr_id: 322 ip: 0x7e7ad3daf4a0 stop_fetch: false
[INIT]   → Fetched instr_id: 323 ip: 0x7e7ad3daf4a3 stop_fetch: false
[INIT]   → Fetched instr_id: 324 ip: 0x7e7ad3daf4a7 stop_fetch: false
[INIT]   → Fetched instr_id: 325 ip: 0x7e7ad3daf4aa stop_fetch: false
[INIT]   → Fetched instr_id: 326 ip: 0x7e7ad3daf4ae stop_fetch: false
[INIT]   → Fetched instr_id: 327 ip: 0x7e7ad3daf4b1 stop_fetch: false
[INIT]   → Fetched instr_id: 328 ip: 0x7e7ad3daf4b3 stop_fetch: false
[INIT]   → Fetched instr_id: 329 ip: 0x7e7ad3daf4b6 stop_fetch: false
[INIT]   → Fetched instr_id: 330 ip: 0x7e7ad3daf4b8 stop_fetch: false
[INIT]   → Fetched instr_id: 331 ip: 0x7e7ad3daf4ba stop_fetch: false
[INIT]   → Fetched instr_id: 332 ip: 0x7e7ad3daf4bd stop_fetch: false
[INIT]   → Fetched instr_id: 333 ip: 0x7e7ad3daf4c0 stop_fetch: false
[INIT]   → Fetched instr_id: 334 ip: 0x7e7ad3daf4c2 stop_fetch: false
[INIT]   → Fetched instr_id: 335 ip: 0x7e7ad3daf4c8 stop_fetch: false
[INIT]   → Fetched instr_id: 336 ip: 0x7e7ad3daf4ca stop_fetch: false
[INIT]   → Fetched instr_id: 337 ip: 0x7e7ad3daf4cf stop_fetch: false
[INIT]   → Fetched instr_id: 338 ip: 0x7e7ad3daf4d3 stop_fetch: false
[INIT]   → Fetched instr_id: 339 ip: 0x7e7ad3daf4d6 stop_fetch: false
[INIT]   → Fetched instr_id: 340 ip: 0x7e7ad3daf4c8 stop_fetch: false
[INIT]   → Fetched instr_id: 341 ip: 0x7e7ad3daf4ca stop_fetch: false
[INIT]   → Fetched instr_id: 342 ip: 0x7e7ad3daf4cf stop_fetch: false
[INIT]   → Fetched instr_id: 343 ip: 0x7e7ad3daf4d3 stop_fetch: false
[INIT]   → Fetched instr_id: 344 ip: 0x7e7ad3daf4d6 stop_fetch: false
[INIT]   → Fetched instr_id: 345 ip: 0x7e7ad3daf4c8 stop_fetch: false
[INIT]   → Fetched instr_id: 346 ip: 0x7e7ad3daf4ca stop_fetch: true
[INIT]   → Fetched instr_id: 347 ip: 0x7e7ad3daf4cf stop_fetch: false
[INIT]   → Fetched instr_id: 348 ip: 0x7e7ad3daf4d3 stop_fetch: false
[INIT]   → Fetched instr_id: 349 ip: 0x7e7ad3daf4d6 stop_fetch: true
[INIT]   → Fetched instr_id: 350 ip: 0x7e7ad3daf4c8 stop_fetch: false
[INIT]   → Fetched instr_id: 351 ip: 0x7e7ad3daf4ca stop_fetch: true
[INIT]   → Fetched instr_id: 352 ip: 0x7e7ad3daf4cf stop_fetch: false
[INIT]   → Fetched instr_id: 353 ip: 0x7e7ad3daf4d3 stop_fetch: false
[INIT]   → Fetched instr_id: 354 ip: 0x7e7ad3daf4d6 stop_fetch: true
[INIT]   → Fetched instr_id: 355 ip: 0x7e7ad3daf4c8 stop_fetch: false
[INIT]   → Fetched instr_id: 356 ip: 0x7e7ad3daf4ca stop_fetch: true
[INIT]   → Fetched instr_id: 357 ip: 0x7e7ad3daf4cf stop_fetch: false
[INIT]   → Fetched instr_id: 358 ip: 0x7e7ad3daf4d3 stop_fetch: false
[INIT]   → Fetched instr_id: 359 ip: 0x7e7ad3daf4d6 stop_fetch: true
[INIT]   → Fetched instr_id: 360 ip: 0x7e7ad3daf4c8 stop_fetch: false
[INIT]   → Fetched instr_id: 361 ip: 0x7e7ad3daf4ca stop_fetch: true
[INIT]   → Fetched instr_id: 362 ip: 0x7e7ad3daf4cf stop_fetch: false
[INIT]   → Fetched instr_id: 363 ip: 0x7e7ad3daf4d3 stop_fetch: false
[INIT]   → Fetched instr_id: 364 ip: 0x7e7ad3daf4d6 stop_fetch: true
[INIT]   → Fetched instr_id: 365 ip: 0x7e7ad3daf4c8 stop_fetch: false
[INIT]   → Fetched instr_id: 366 ip: 0x7e7ad3daf4ca stop_fetch: true
[INIT]   → Fetched instr_id: 367 ip: 0x7e7ad3daf4cf stop_fetch: false
[INIT]   → Fetched instr_id: 368 ip: 0x7e7ad3daf4d3 stop_fetch: false
[INIT]   → Fetched instr_id: 369 ip: 0x7e7ad3daf4d6 stop_fetch: true
[INIT]   → Fetched instr_id: 370 ip: 0x7e7ad3daf4c8 stop_fetch: false
[INIT]   → Fetched instr_id: 371 ip: 0x7e7ad3daf4ca stop_fetch: true
[INIT]   → Fetched instr_id: 372 ip: 0x7e7ad3daf4cf stop_fetch: false
[INIT]   → Fetched instr_id: 373 ip: 0x7e7ad3daf4d3 stop_fetch: false
[INIT]   → Fetched instr_id: 374 ip: 0x7e7ad3daf4d6 stop_fetch: true
[INIT]   → Fetched instr_id: 375 ip: 0x7e7ad3daf4c8 stop_fetch: false
[INIT]   → Fetched instr_id: 376 ip: 0x7e7ad3daf4ca stop_fetch: true
[INIT]   → Fetched instr_id: 377 ip: 0x7e7ad3daf4cf stop_fetch: false
[INIT]   → Fetched instr_id: 378 ip: 0x7e7ad3daf4d3 stop_fetch: false
[INIT]   → Fetched instr_id: 379 ip: 0x7e7ad3daf4d6 stop_fetch: true
[INIT]   → Fetched instr_id: 380 ip: 0x7e7ad3daf4c8 stop_fetch: false
[INIT]   → Fetched instr_id: 381 ip: 0x7e7ad3daf4ca stop_fetch: true
[INIT]   → Fetched instr_id: 382 ip: 0x7e7ad3daf4cf stop_fetch: false
[INIT]   → Fetched instr_id: 383 ip: 0x7e7ad3daf4d3 stop_fetch: false
[INIT]   → Fetched instr_id: 384 ip: 0x7e7ad3daf4d6 stop_fetch: true
[INIT]   → Fetched instr_id: 385 ip: 0x7e7ad3daf4c8 stop_fetch: false
[INIT]   → Fetched instr_id: 386 ip: 0x7e7ad3daf4ca stop_fetch: true
[INIT]   → Fetched instr_id: 387 ip: 0x7e7ad3daf4cf stop_fetch: false
[INIT]   → Fetched instr_id: 388 ip: 0x7e7ad3daf4d3 stop_fetch: false
[INIT]   → Fetched instr_id: 389 ip: 0x7e7ad3daf4d6 stop_fetch: true
[INIT]   → Fetched instr_id: 390 ip: 0x7e7ad3daf4c8 stop_fetch: false
[INIT]   → Fetched instr_id: 391 ip: 0x7e7ad3daf4ca stop_fetch: true
[INIT]   → Fetched instr_id: 392 ip: 0x7e7ad3daf4cf stop_fetch: false
[INIT]   → Fetched instr_id: 393 ip: 0x7e7ad3daf4d3 stop_fetch: false
[INIT]   → Fetched instr_id: 394 ip: 0x7e7ad3daf4d6 stop_fetch: true
[INIT]   → Fetched instr_id: 395 ip: 0x7e7ad3daf4c8 stop_fetch: false
[INIT]   → Fetched instr_id: 396 ip: 0x7e7ad3daf4ca stop_fetch: false
[INIT]   → Fetched instr_id: 397 ip: 0x7e7ad3daf4cc stop_fetch: false
[INIT]   → Fetched instr_id: 398 ip: 0x7e7ad3daf4cf stop_fetch: false
[INIT]   → Fetched instr_id: 399 ip: 0x7e7ad3daf4d3 stop_fetch: false
[INIT]   → Fetched instr_id: 400 ip: 0x7e7ad3daf4d6 stop_fetch: true
[INIT]   → Fetched instr_id: 401 ip: 0x7e7ad3daf4c8 stop_fetch: false
[INIT]   → Fetched instr_id: 402 ip: 0x7e7ad3daf4ca stop_fetch: false
[INIT]   → Fetched instr_id: 403 ip: 0x7e7ad3daf4cc stop_fetch: false
[INIT]   → Fetched instr_id: 404 ip: 0x7e7ad3daf4cf stop_fetch: false
[INIT]   → Fetched instr_id: 405 ip: 0x7e7ad3daf4d3 stop_fetch: false
[INIT]   → Fetched instr_id: 406 ip: 0x7e7ad3daf4d6 stop_fetch: true
[INIT]   → Fetched instr_id: 407 ip: 0x7e7ad3daf4c8 stop_fetch: false
[INIT]   → Fetched instr_id: 408 ip: 0x7e7ad3daf4ca stop_fetch: false
[INIT]   → Fetched instr_id: 409 ip: 0x7e7ad3daf4cc stop_fetch: false
[INIT]   → Fetched instr_id: 410 ip: 0x7e7ad3daf4cf stop_fetch: false
[INIT]   → Fetched instr_id: 411 ip: 0x7e7ad3daf4d3 stop_fetch: false
[INIT]   → Fetched instr_id: 412 ip: 0x7e7ad3daf4d6 stop_fetch: true
[INIT]   → Fetched instr_id: 413 ip: 0x7e7ad3daf4c8 stop_fetch: false
[INIT]   → Fetched instr_id: 414 ip: 0x7e7ad3daf4ca stop_fetch: false
[INIT]   → Fetched instr_id: 415 ip: 0x7e7ad3daf4cc stop_fetch: false
[INIT]   → Fetched instr_id: 416 ip: 0x7e7ad3daf4cf stop_fetch: false
[INIT]   → Fetched instr_id: 417 ip: 0x7e7ad3daf4d3 stop_fetch: false
[INIT]   → Fetched instr_id: 418 ip: 0x7e7ad3daf4d6 stop_fetch: true
[INIT]   → Fetched instr_id: 419 ip: 0x7e7ad3daf4c8 stop_fetch: false
[INIT]   → Fetched instr_id: 420 ip: 0x7e7ad3daf4ca stop_fetch: false
[INIT]   → Fetched instr_id: 421 ip: 0x7e7ad3daf4cc stop_fetch: false
[INIT]   → Fetched instr_id: 422 ip: 0x7e7ad3daf4cf stop_fetch: false
[INIT]   → Fetched instr_id: 423 ip: 0x7e7ad3daf4d3 stop_fetch: false
[INIT]   → Fetched instr_id: 424 ip: 0x7e7ad3daf4d6 stop_fetch: true
[INIT]   → Fetched instr_id: 425 ip: 0x7e7ad3daf4c8 stop_fetch: false
[INIT]   → Fetched instr_id: 426 ip: 0x7e7ad3daf4ca stop_fetch: false
[INIT]   → Fetched instr_id: 427 ip: 0x7e7ad3daf4cc stop_fetch: false
[INIT]   → Fetched instr_id: 428 ip: 0x7e7ad3daf4cf stop_fetch: false
[INIT]   → Fetched instr_id: 429 ip: 0x7e7ad3daf4d3 stop_fetch: false
[INIT]   → Fetched instr_id: 430 ip: 0x7e7ad3daf4d6 stop_fetch: true
[INIT]   → Fetched instr_id: 431 ip: 0x7e7ad3daf4c8 stop_fetch: false
[INIT]   → Fetched instr_id: 432 ip: 0x7e7ad3daf4ca stop_fetch: false
[INIT]   → Fetched instr_id: 433 ip: 0x7e7ad3daf4cc stop_fetch: false
[INIT]   → Fetched instr_id: 434 ip: 0x7e7ad3daf4cf stop_fetch: false
[INIT]   → Fetched instr_id: 435 ip: 0x7e7ad3daf4d3 stop_fetch: false
[INIT]   → Fetched instr_id: 436 ip: 0x7e7ad3daf4d6 stop_fetch: true
[INIT]   → Fetched instr_id: 437 ip: 0x7e7ad3daf4c8 stop_fetch: false
[INIT]   → Fetched instr_id: 438 ip: 0x7e7ad3daf4ca stop_fetch: false
[INIT]   → Fetched instr_id: 439 ip: 0x7e7ad3daf4cc stop_fetch: false
[INIT]   → Fetched instr_id: 440 ip: 0x7e7ad3daf4cf stop_fetch: false
[INIT]   → Fetched instr_id: 441 ip: 0x7e7ad3daf4d3 stop_fetch: false
[INIT]   → Fetched instr_id: 442 ip: 0x7e7ad3daf4d6 stop_fetch: true
[INIT]   → Fetched instr_id: 443 ip: 0x7e7ad3daf4c8 stop_fetch: false
[INIT]   → Fetched instr_id: 444 ip: 0x7e7ad3daf4ca stop_fetch: false
[INIT]   → Fetched instr_id: 445 ip: 0x7e7ad3daf4cc stop_fetch: false
[INIT]   → Fetched instr_id: 446 ip: 0x7e7ad3daf4cf stop_fetch: false
[INIT]   → Fetched instr_id: 447 ip: 0x7e7ad3daf4d3 stop_fetch: false
[INIT]   → Fetched instr_id: 448 ip: 0x7e7ad3daf4d6 stop_fetch: false
[INIT]   → Fetched instr_id: 449 ip: 0x7e7ad3daf4d8 stop_fetch: false
[INIT]   → Fetched instr_id: 450 ip: 0x7e7ad3daf4dc stop_fetch: false
[INIT]   → Fetched instr_id: 451 ip: 0x7e7ad3daf4e3 stop_fetch: false
[INIT]   → Fetched instr_id: 452 ip: 0x7e7ad3daf4e6 stop_fetch: false
[INIT]   → Fetched instr_id: 453 ip: 0x7e7ad3daf4e8 stop_fetch: false
[INIT]   → Fetched instr_id: 454 ip: 0x7e7ad3daf4ef stop_fetch: false
[INIT]   → Fetched instr_id: 455 ip: 0x7e7ad3daf4f6 stop_fetch: false
[INIT]   → Fetched instr_id: 456 ip: 0x7e7ad3daf4f9 stop_fetch: false
[INIT]   → Fetched instr_id: 457 ip: 0x7e7ad3daf4fd stop_fetch: false
[INIT]   → Fetched instr_id: 458 ip: 0x7e7ad3daf501 stop_fetch: false
[INIT]   → Fetched instr_id: 459 ip: 0x7e7ad3daf505 stop_fetch: false
[INIT]   → Fetched instr_id: 460 ip: 0x7e7ad3daf509 stop_fetch: false
[INIT]   → Fetched instr_id: 461 ip: 0x7e7ad3daf50d stop_fetch: false
[INIT]   → Fetched instr_id: 462 ip: 0x7e7ad3daf511 stop_fetch: false
[INIT]   → Fetched instr_id: 463 ip: 0x7e7ad3daf514 stop_fetch: false
[INIT]   → Fetched instr_id: 464 ip: 0x7e7ad3daf51a stop_fetch: false
[INIT]   → Fetched instr_id: 465 ip: 0x7e7ad3daf51e stop_fetch: false
[INIT]   → Fetched instr_id: 466 ip: 0x7e7ad3daf520 stop_fetch: false
[INIT]   → Fetched instr_id: 467 ip: 0x7e7ad3daf523 stop_fetch: false
[INIT]   → Fetched instr_id: 468 ip: 0x7e7ad3daf525 stop_fetch: false
[INIT]   → Fetched instr_id: 469 ip: 0x7e7ad3daf529 stop_fetch: false
[INIT]   → Fetched instr_id: 470 ip: 0x7e7ad3daf52c stop_fetch: false
[INIT]   → Fetched instr_id: 471 ip: 0x7e7ad3daf530 stop_fetch: false
[INIT]   → Fetched instr_id: 472 ip: 0x7e7ad3daf537 stop_fetch: false
[INIT]   → Fetched instr_id: 473 ip: 0x7e7ad3daf53b stop_fetch: false
[INIT]   → Fetched instr_id: 474 ip: 0x7e7ad3daf540 stop_fetch: false
[INIT]   → Fetched instr_id: 475 ip: 0x7e7ad3daf547 stop_fetch: false
[INIT]   → Fetched instr_id: 476 ip: 0x7e7ad3daf54c stop_fetch: false
[INIT]   → Fetched instr_id: 477 ip: 0x7e7ad3daf550 stop_fetch: false
[INIT]   → Fetched instr_id: 478 ip: 0x7e7ad3daf554 stop_fetch: false
[INIT]   → Fetched instr_id: 479 ip: 0x7e7ad3daf557 stop_fetch: false
[INIT]   → Fetched instr_id: 480 ip: 0x7e7ad3daf561 stop_fetch: false
[INIT]   → Fetched instr_id: 481 ip: 0x7e7ad3daf564 stop_fetch: false
[INIT]   → Fetched instr_id: 482 ip: 0x7e7ad3daf5c5 stop_fetch: false
[INIT]   → Fetched instr_id: 483 ip: 0x7e7ad3daf5c9 stop_fetch: false
[INIT]   → Fetched instr_id: 484 ip: 0x7e7ad3daf5cd stop_fetch: false
[INIT]   → Fetched instr_id: 485 ip: 0x7e7ad3daf5d0 stop_fetch: false
[INIT]   → Fetched instr_id: 486 ip: 0x7e7ad3daf5d7 stop_fetch: false
[INIT]   → Fetched instr_id: 487 ip: 0x7e7ad3daf5da stop_fetch: false
[INIT]   → Fetched instr_id: 488 ip: 0x7e7ad3daf5de stop_fetch: false
[INIT]   → Fetched instr_id: 489 ip: 0x7e7ad3daf5e1 stop_fetch: false
[INIT]   → Fetched instr_id: 490 ip: 0x7e7ad3daf5e5 stop_fetch: false
[INIT]   → Fetched instr_id: 491 ip: 0x7e7ad3daf5e9 stop_fetch: false
[INIT]   → Fetched instr_id: 492 ip: 0x7e7ad3daf5ed stop_fetch: false
[INIT]   → Fetched instr_id: 493 ip: 0x7e7ad3daf5f4 stop_fetch: false
[INIT]   → Fetched instr_id: 494 ip: 0x7e7ad3daf5f7 stop_fetch: false
[INIT]   → Fetched instr_id: 495 ip: 0x7e7ad3daf5fa stop_fetch: false
[INIT]   → Fetched instr_id: 496 ip: 0x7e7ad3daf5fe stop_fetch: false
[INIT]   → Fetched instr_id: 497 ip: 0x7e7ad3daf602 stop_fetch: false
[INIT]   → Fetched instr_id: 498 ip: 0x7e7ad3daf606 stop_fetch: false
[LVP] rob_it value predicted: true true 0x34f71f8 0x34f71f8 
[LVP] rob_it value predicted: false
[LVP] rob_it value predicted: false
[LVP] CORREC[LVP] rob_it value predicted: true true 0x34f71b9 0x34f71f8 
[LVP] rob_it value predicted: true true 0x34f71b9 0x34f71f8 
[LVP] rob_it value predicted: true true 0x34f71b9 0x34f71f8 
[LVP] rob_it value predicted: true true 0x34f71ba 0x34f71f8 
[LVP] rob_it value predicted: true true 0x34f71ba 0x34f71f8 
[LVP] rob_it value predicted: true true 0x34f71ba 0x34f71f8 
[LVP] rob_it value predicted: true true 0x34f71ba 0x34f71f8 
[LVP] rob_it value predicted: true true 0x34f71bb 0x34f71f8 
[LVP] rob_it value predicted: true true 0x34f71bb 0x34f71f8 
[LVP] rob_it value predicted: true true 0x34f71bb 0x34f71f8 
[LVP] rob_it value predicted: true true 0x34f71bb 0x34f71f8 
[LVP] rob_it value predicted: true true 0x34f71bc 0x34f71f8 
[LVP] rob_it value predicted: true true 0x34f71bc 0x34f71f8 
[LVP] rob_it value predicted: true true 0x34f71bc 0x34f71f8 
[LVP] rob_it value predicted: true true 0x34f71bc 0x34f71f8 
[LVP] rob_it value predicted: true true 0x34f71bd 0x34f71f8 
[LVP] rob_it value predicted: true true 0x34f71bd 0x34f71f8 
[LVP] rob_it value predicted: true true 0x34f71bd 0x34f71f8 
[LVP] rob_it value predicted: true true 0x34f71bd 0x34f71f8 
[LVP] rob_it value predicted: true true 0x34f71ee 0x34f71f8 
[LVP] rob_it value predicted: true true 0x34f71b9 0x34f71f8 
[LVP] rob_it value predicted: true true 0x34f71ec 0x34f71f8 
[LVP] rob_it value predicted: true true 0x34f71ba 0x34f71f8 
[LVP] rob_it value predicted: true true 0x34f71ba 0x34f71f8 
[LVP] rob_it value predicted: true true 0x34f71bb 0x34f71f8 
[LVP] rob_it value predicted: true true 0x34f71bd 0x34f71f8 
[LVP] rob_it value predicted: true true 0x34f71ee 0x34f71f8 
[LVP] rob_it value predicted: true true 0x34f71bd 0x34f71f8 
[LVP] rob_it value predicted: true true 0x34f71ba 0x34f71f8 
[LVP] rob_it value predicted: true true 0x34f71bb 0x34f71f8 
[LVP] rob_it value predicted: true true 0x34f71bc 0x34f71f8 
[LVP] rob_it value predicted: true true 0x34f71bd 0x34f71f8 
[LVP] rob_it value predicted: true true 0x34f71ef 0x34f71f8 
[LVP] rob_it value predicted: true true 0x34f71ed 0x34f71f8 
[LVP] rob_it value predicted: true true 0x34f71bc 0x34f71f8 
[LVP] rob_it value predicted: true true 0x34f71b6 0x34f71f8 
[LVP] rob_it value predicted: true true 0x34f71bd 0x34f71f8 
[LVP] rob_it value predicted: true true 0x34f63f6 0x34f71f8 
[LVP] rob_it value predicted: true true 0x34f714d 0x34f71f8 
[LVP] rob_it value predicted: true true 0x34f63f6 0x34f71f8 
[LVP] rob_it value predicted: true true 0x34f63f6 0x34f71f8 
[LVP] rob_it value predicted: false false 0x0 0x34f71f8 
[LVP] rob_it value predicted: false false 0x0 0x34f71f8 
[LVP] rob_it value predicted: false false 0x0 0x34f71f8 
[LVP] rob_it value predicted: false false 0x0 0x34f71f8 
[LVP] rob_it value predicted: false false 0x0 0x34f71f8 
[LVP] rob_it value predicted: false false 0x0 0x34f71f8 
[LVP] rob_it value predicted: false false 0x0 0x34f71f8 
[LVP] rob_it value predicted: false false 0x0 0x34f71f8 
[LVP] rob_it value predicted: false false 0x0 0x34f71f8 
[LVP] rob_it value predicted: false false 0x0 0x34f71f8 
[LVP] rob_it value predicted: false false 0x0 0x34f71f8 
[LVP] rob_it value predicted: false false 0x0 0x34f71f8 
[LVP] rob_it value predicted: false false 0x0 0x34f71f8 
[LVP] rob_it value predicted: false false 0x0 0x34f71f8 
[LVP] rob_it value predicted: false false 0x0 0x34f71f8 
[LVP] rob_it value predicted: false false 0x0 0x34f71f8 
[LVP] rob_it value predicted: false false 0x0 0x34f71f8 
[LVP] rob_it value predicted: false false 0x0 0x34f71f8 
[LVP] rob_it value predicted: false false 0x0 0x34f71f8 
[LVP] rob_it value predicted: false false 0x0 0x34f71f8 
[LVP] rob_it value predicted: false false 0x0 0x34f71f8 
[LVP] rob_it value predicted: false false 0x0 0x34f71f8 
[LVP] rob_it value predicted: false false 0x0 0x34f71f8 
[LVP] rob_it value predicted: false false 0x0 0x34f71f8 
[LVP] rob_it value predicted: false false 0x0 0x34f71f8 
[LVP] rob_it value predicted: false false 0x0 0x34f71f8 
[LVP] rob_it value predicted: false false 0x0 0x34f71f8 
[LVP] rob_it value predicted: false false 0x0 0x34f71f8 
[LVP] rob_it value predicted: false false 0x0 0x34f71f8 
[LVP] rob_it value predicted: false false 0x0 0x34f71f8 
[LVP] rob_it value predicted: false false 0x0 0x34f71f8 
[LVP] rob_it value predicted: false false 0x0 0x34f71f8 
[LVP] rob_it value predicted: false false 0x0 0x34f71f8 
[LVP] rob_it value predicted: false false 0x0 0x34f71f8 
[LVP] rob_it value predicted: false false 0x0 0x34f71f8 
[LVP] rob_it value predicted: false false 0x0 0x34f71f8 
[LVP] rob_it value predicted: false false 0x0 0x34f71f8 
[LVP] rob_it value predicted: false false 0x0 0x34f71f8 
[LVP] rob_it value predicted: false false 0x0 0x34f71f8 
[LVP] rob_it value predicted: false false 0x0 0x34f71f8 
[LVP] rob_it value predicted: false false 0x0 0x34f71f8 
[LVP] rob_it value predicted: false false 0x0 0x34f71f8 
[LVP] rob_it value predicted: false false 0x0 0x34f71f8 
[LVP] rob_it value predicted: false false 0x0 0x34f71f8 
[LVP] rob_it value predicted: false false 0x0 0x34f71f8 
[LVP] rob_it value predicted: false false 0x0 0x34f71f8 
[LVP] rob_it value predicted: false false 0x0 0x34f71f8 
[LVP] rob_it value predicted: false false 0x0 0x34f71f8 
[LVP] rob_it value predicted: false false 0x0 0x34f71f8 
[LVP] rob_it value predicted: false false 0x0 0x34f71f8 
[LVP] rob_it value predicted: false false 0x0 0x34f71f8 
[LVP] rob_it value predicted: false false 0x0 0x34f71f8 
[LVP] rob_it value predicted: false false 0x0 0x34f71f8 
[LVP] rob_it value predicted: false false 0x0 0x34f71f8 
[LVP] rob_it value predicted: false false 0x0 0x34f71f8 
[LVP] rob_it value predicted: false false 0x0 0x34f71f8 
[LVP] rob_it value predicted: false false 0x0 0x34f71f8 
[LVP] rob_it value predicted: false false 0x0 0x34f71f8 
[LVP] rob_it value predicted: false false 0x0 0x34f71f8 
[LVP] rob_it value predicted: false false 0x0 0x34f71f8 
[LVP] rob_it value predicted: false false 0x0 0x34f71f8 
[LVP] rob_it value predicted: false false 0x0 0x34f71f8 
[LVP] rob_it value predicted: false false 0x0 0x34f71f8 
[LVP] rob_it value predicted: false false 0x0 0x34f71f8 
[LVP] rob_it value predicted: false false 0x0 0x34f71f8 
[LVP] rob_it value predicted: false false 0x0 0x34f71f8 
[LVP] rob_it value predicted: false false 0x0 0x34f71f8 
[LVP] rob_it value predicted: false false 0x0 0x34f71f8 
[LVP] rob_it value predicted: false false 0x0 0x34f71f8 
[LVP] rob_it value predicted: false false 0x0 0x34f71f8 
[LVP] rob_it value predicted: false false 0x0 0x34f71f8 
[LVP] rob_it value predicted: false false 0x0 0x34f71f8 
[LVP] rob_it value predicted: false false 0x0 0x34f71f8 
[LVP] rob_it value predicted: false false 0x0 0x34f71f8 
[LVP] rob_it value predicted: false false 0x0 0x34f71f8 
[LVP] rob_it value predicted: false false 0x0 0x34f71f8 
[LVP] rob_it value predicted: false false 0x0 0x34f71f8 
[LVP] rob_it value predicted: false false 0x0 0x34f71f8 
[LVP] rob_it value predicted: false false 0x0 0x34f71f8 
[LVP] rob_it value predicted: false false 0x0 0x34f71f8 
[LVP] rob_it value predicted: false false 0x0 0x34f71f8 
[LVP] rob_it value predicted: false false 0x0 0x34f71f8 
[LVP] rob_it value predicted: false false 0x0 0x34f71f8 
[LVP] rob_it value predicted: false false 0x0 0x34f71f8 
[LVP] rob_it value predicted: false false 0x0 0x34f71f8 
[LVP] rob_it value predicted: false false 0x0 0x34f71f8 
[LVP] rob_it value predicted: false true 0x34f71f8 0x34f71b9 
[LVP] rob_it value predicted: true true 0x34f71b9 0x34f71b9 
[LVP] rob_it value predicted: false
[LVP] rob_it value predicted: false
[LVP] CORREC[LVP] rob_it value predicted: true true 0x34f71b9 0x34f71b9 
[LVP] rob_it value predicted: false
[LVP] rob_it value predicted: false
[LVP] CORREC[LVP] rob_it value predicted: true true 0x34f71b9 0x34f71b9 
[LVP] rob_it value predicted: false
[LVP] rob_it value predicted: false
[LVP] CORREC[LVP] rob_it value predicted: true true 0x34f71ba 0x34f71b9 
[LVP] rob_it value predicted: true true 0x34f71ba 0x34f71b9 
[LVP] rob_it value predicted: true true 0x34f71ba 0x34f71b9 
[LVP] rob_it value predicted: true true 0x34f71ba 0x34f71b9 
[LVP] rob_it value predicted: true true 0x34f71bb 0x34f71b9 
[LVP] rob_it value predicted: true true 0x34f71bb 0x34f71b9 
[LVP] rob_it value predicted: true true 0x34f71bb 0x34f71b9 
[LVP] rob_it value predicted: true true 0x34f71bb 0x34f71b9 
[LVP] rob_it value predicted: true true 0x34f71bc 0x34f71b9 
[LVP] rob_it value predicted: true true 0x34f71bc 0x34f71b9 
[LVP] rob_it value predicted: true true 0x34f71bc 0x34f71b9 
[LVP] rob_it value predicted: true true 0x34f71bc 0x34f71b9 
[LVP] rob_it value predicted: true true 0x34f71bd 0x34f71b9 
[LVP] rob_it value predicted: true true 0x34f71bd 0x34f71b9 
[LVP] rob_it value predicted: true true 0x34f71bd 0x34f71b9 
[LVP] rob_it value predicted: true true 0x34f71bd 0x34f71b9 
[LVP] rob_it value predicted: true true 0x34f71ee 0x34f71b9 
[LVP] rob_it value predicted: true true 0x34f71b9 0x34f71b9 
[LVP] rob_it value predicted: false
[LVP] rob_it value predicted: false
[LVP] CORREC[LVP] rob_it value predicted: true true 0x34f71ec 0x34f71b9 
[LVP] rob_it value predicted: true true 0x34f71ba 0x34f71b9 
[LVP] rob_it value predicted: true true 0x34f71ba 0x34f71b9 
[LVP] rob_it value predicted: true true 0x34f71bb 0x34f71b9 
[LVP] rob_it value predicted: true true 0x34f71bd 0x34f71b9 
[LVP] rob_it value predicted: true true 0x34f71ee 0x34f71b9 
[LVP] rob_it value predicted: true true 0x34f71bd 0x34f71b9 
[LVP] rob_it value predicted: true true 0x34f71ba 0x34f71b9 
[LVP] rob_it value predicted: true true 0x34f71bb 0x34f71b9 
[LVP] rob_it value predicted: true true 0x34f71bc 0x34f71b9 
[LVP] rob_it value predicted: true true 0x34f71bd 0x34f71b9 
[LVP] rob_it value predicted: true true 0x34f71ef 0x34f71b9 
[LVP] rob_it value predicted: true true 0x34f71ed 0x34f71b9 
[LVP] rob_it value predicted: true true 0x34f71bc 0x34f71b9 
[LVP] rob_it value predicted: true true 0x34f71b6 0x34f71b9 
[LVP] rob_it value predicted: true true 0x34f71bd 0x34f71b9 
[LVP] rob_it value predicted: true true 0x34f63f6 0x34f71b9 
[LVP] rob_it value predicted: true true 0x34f714d 0x34f71b9 
[LVP] rob_it value predicted: true true 0x34f63f6 0x34f71b9 
[LVP] rob_it value predicted: true true 0x34f63f6 0x34f71b9 
[LVP] rob_it value predicted: false false 0x0 0x34f71b9 
[LVP] rob_it value predicted: false false 0x0 0x34f71b9 
[LVP] rob_it value predicted: false false 0x0 0x34f71b9 
[LVP] rob_it value predicted: false false 0x0 0x34f71b9 
[LVP] rob_it value predicted: false false 0x0 0x34f71b9 
[LVP] rob_it value predicted: false false 0x0 0x34f71b9 
[LVP] rob_it value predicted: false false 0x0 0x34f71b9 
[LVP] rob_it value predicted: false false 0x0 0x34f71b9 
[LVP] rob_it value predicted: false false 0x0 0x34f71b9 
[LVP] rob_it value predicted: false false 0x0 0x34f71b9 
[LVP] rob_it value predicted: false false 0x0 0x34f71b9 
[LVP] rob_it value predicted: false false 0x0 0x34f71b9 
[LVP] rob_it value predicted: false false 0x0 0x34f71b9 
[LVP] rob_it value predicted: false false 0x0 0x34f71b9 
[LVP] rob_it value predicted: false false 0x0 0x34f71b9 
[LVP] rob_it value predicted: false false 0x0 0x34f71b9 
[LVP] rob_it value predicted: false false 0x0 0x34f71b9 
[LVP] rob_it value predicted: false false 0x0 0x34f71b9 
[LVP] rob_it value predicted: false false 0x0 0x34f71b9 
[LVP] rob_it value predicted: false false 0x0 0x34f71b9 
[LVP] rob_it value predicted: false false 0x0 0x34f71b9 
[LVP] rob_it value predicted: false false 0x0 0x34f71b9 
[LVP] rob_it value predicted: false false 0x0 0x34f71b9 
[LVP] rob_it value predicted: false false 0x0 0x34f71b9 
[LVP] rob_it value predicted: false false 0x0 0x34f71b9 
[LVP] rob_it value predicted: false false 0x0 0x34f71b9 
[LVP] rob_it value predicted: false false 0x0 0x34f71b9 
[LVP] rob_it value predicted: false false 0x0 0x34f71b9 
[LVP] rob_it value predicted: false false 0x0 0x34f71b9 
[LVP] rob_it value predicted: false false 0x0 0x34f71b9 
[LVP] rob_it value predicted: false false 0x0 0x34f71b9 
[LVP] rob_it value predicted: false false 0x0 0x34f71b9 
[LVP] rob_it value predicted: false false 0x0 0x34f71b9 
[LVP] rob_it value predicted: false false 0x0 0x34f71b9 
[LVP] rob_it value predicted: false false 0x0 0x34f71b9 
[LVP] rob_it value predicted: false false 0x0 0x34f71b9 
[LVP] rob_it value predicted: false false 0x0 0x34f71b9 
[LVP] rob_it value predicted: false false 0x0 0x34f71b9 
[LVP] rob_it value predicted: false false 0x0 0x34f71b9 
[LVP] rob_it value predicted: false false 0x0 0x34f71b9 
[LVP] rob_it value predicted: false false 0x0 0x34f71b9 
[LVP] rob_it value predicted: false false 0x0 0x34f71b9 
[LVP] rob_it value predicted: false false 0x0 0x34f71b9 
[LVP] rob_it value predicted: false false 0x0 0x34f71b9 
[LVP] rob_it value predicted: false false 0x0 0x34f71b9 
[LVP] rob_it value predicted: false false 0x0 0x34f71b9 
[LVP] rob_it value predicted: false false 0x0 0x34f71b9 
[LVP] rob_it value predicted: false false 0x0 0x34f71b9 
[LVP] rob_it value predicted: false false 0x0 0x34f71b9 
[LVP] rob_it value predicted: false false 0x0 0x34f71b9 
[LVP] rob_it value predicted: false false 0x0 0x34f71b9 
[LVP] rob_it value predicted: false false 0x0 0x34f71b9 
[LVP] rob_it value predicted: false false 0x0 0x34f71b9 
[LVP] rob_it value predicted: false false 0x0 0x34f71b9 
[LVP] rob_it value predicted: false false 0x0 0x34f71b9 
[LVP] rob_it value predicted: false false 0x0 0x34f71b9 
[LVP] rob_it value predicted: false false 0x0 0x34f71b9 
[LVP] rob_it value predicted: false false 0x0 0x34f71b9 
[LVP] rob_it value predicted: false false 0x0 0x34f71b9 
[LVP] rob_it value predicted: false false 0x0 0x34f71b9 
[LVP] rob_it value predicted: false false 0x0 0x34f71b9 
[LVP] rob_it value predicted: false false 0x0 0x34f71b9 
[LVP] rob_it value predicted: false false 0x0 0x34f71b9 
[LVP] rob_it value predicted: false false 0x0 0x34f71b9 
[LVP] rob_it value predicted: false false 0x0 0x34f71b9 
[LVP] rob_it value predicted: false false 0x0 0x34f71b9 
[LVP] rob_it value predicted: false false 0x0 0x34f71b9 
[LVP] rob_it value predicted: false false 0x0 0x34f71b9 
[LVP] rob_it value predicted: false false 0x0 0x34f71b9 
[LVP] rob_it value predicted: false false 0x0 0x34f71b9 
[LVP] rob_it value predicted: false false 0x0 0x34f71b9 
[LVP] rob_it value predicted: false false 0x0 0x34f71b9 
[LVP] rob_it value predicted: false false 0x0 0x34f71b9 
[LVP] rob_it value predicted: false false 0x0 0x34f71b9 
[LVP] rob_it value predicted: false false 0x0 0x34f71b9 
[LVP] rob_it value predicted: false false 0x0 0x34f71b9 
[LVP] rob_it value predicted: false false 0x0 0x34f71b9 
[LVP] rob_it value predicted: false false 0x0 0x34f71b9 
[LVP] rob_it value predicted: false false 0x0 0x34f71b9 
[LVP] rob_it value predicted: false false 0x0 0x34f71b9 
[LVP] rob_it value predicted: false false 0x0 0x34f71b9 
[LVP] rob_it value predicted: false false 0x0 0x34f71b9 
[LVP] rob_it value predicted: false false 0x0 0x34f71b9 
[LVP] rob_it value predicted: false false 0x0 0x34f71b9 
[LVP] rob_it value predicted: false false 0x0 0x34f71b9 
[LVP] rob_it value predicted: false false 0x0 0x34f71b9 
[LVP] rob_it value predicted: false true 0x34f71f8 0x34f71ba 
[LVP] rob_it value predicted: false true 0x34f71b9 0x34f71ba 
[LVP] rob_it value predicted: false true 0x34f71b9 0x34f71ba 
[LVP] rob_it value predicted: false true 0x34f71b9 0x34f71ba 
[LVP] rob_it value predicted: true true 0x34f71ba 0x34f71ba 
[LVP] rob_it value predicted: false
[LVP] rob_it value predicted: false
[LVP] CORREC[LVP] rob_it value predicted: true true 0x34f71ba 0x34f71ba 
[LVP] rob_it value predicted: false
[LVP] rob_it value predicted: false
[LVP] CORREC[LVP] rob_it value predicted: true true 0x34f71ba 0x34f71ba 
[LVP] rob_it value predicted: false
[LVP] rob_it value predicted: false
[LVP] CORREC[LVP] rob_it value predicted: true true 0x34f71ba 0x34f71ba 
[LVP] rob_it value predicted: false
[LVP] rob_it value predicted: false
[LVP] CORREC[LVP] rob_it value predicted: true true 0x34f71bb 0x34f71ba 
[LVP] rob_it value predicted: true true 0x34f71bb 0x34f71ba 
[LVP] rob_it value predicted: true true 0x34f71bb 0x34f71ba 
[LVP] rob_it value predicted: true true 0x34f71bb 0x34f71ba 
[LVP] rob_it value predicted: true true 0x34f71bc 0x34f71ba 
[LVP] rob_it value predicted: true true 0x34f71bc 0x34f71ba 
[LVP] rob_it value predicted: true true 0x34f71bc 0x34f71ba 
[LVP] rob_it value predicted: true true 0x34f71bc 0x34f71ba 
[LVP] rob_it value predicted: true true 0x34f71bd 0x34f71ba 
[LVP] rob_it value predicted: true true 0x34f71bd 0x34f71ba 
[LVP] rob_it value predicted: true true 0x34f71bd 0x34f71ba 
[LVP] rob_it value predicted: true true 0x34f71bd 0x34f71ba 
[LVP] rob_it value predicted: true true 0x34f71ee 0x34f71ba 
[LVP] rob_it value predicted: false true 0x34f71b9 0x34f71ba 
[LVP] rob_it value predicted: true true 0x34f71ec 0x34f71ba 
[LVP] rob_it value predicted: true true 0x34f71ba 0x34f71ba 
[LVP] rob_it value predicted: false
[LVP] rob_it value predicted: false
[LVP] CORREC[LVP] rob_it value predicted: true true 0x34f71ba 0x34f71ba 
[LVP] rob_it value predicted: false
[LVP] rob_it value predicted: false
[LVP] CORREC[LVP] rob_it value predicted: true true 0x34f71bb 0x34f71ba 
[LVP] rob_it value predicted: true true 0x34f71bd 0x34f71ba 
[LVP] rob_it value predicted: true true 0x34f71ee 0x34f71ba 
[LVP] rob_it value predicted: true true 0x34f71bd 0x34f71ba 
[LVP] rob_it value predicted: true true 0x34f71ba 0x34f71ba 
[LVP] rob_it value predicted: false
[LVP] rob_it value predicted: false
[LVP] CORREC[LVP] rob_it value predicted: true true 0x34f71bb 0x34f71ba 
[LVP] rob_it value predicted: true true 0x34f71bc 0x34f71ba 
[LVP] rob_it value predicted: true true 0x34f71bd 0x34f71ba 
[LVP] rob_it value predicted: true true 0x34f71ef 0x34f71ba 
[LVP] rob_it value predicted: true true 0x34f71ed 0x34f71ba 
[LVP] rob_it value predicted: true true 0x34f71bc 0x34f71ba 
[LVP] rob_it value predicted: true true 0x34f71b6 0x34f71ba 
[LVP] rob_it value predicted: true true 0x34f71bd 0x34f71ba 
[LVP] rob_it value predicted: true true 0x34f63f6 0x34f71ba 
[LVP] rob_it value predicted: true true 0x34f714d 0x34f71ba 
[LVP] rob_it value predicted: true true 0x34f63f6 0x34f71ba 
[LVP] rob_it value predicted: true true 0x34f63f6 0x34f71ba 
[LVP] rob_it value predicted: false false 0x0 0x34f71ba 
[LVP] rob_it value predicted: false false 0x0 0x34f71ba 
[LVP] rob_it value predicted: false false 0x0 0x34f71ba 
[LVP] rob_it value predicted: false false 0x0 0x34f71ba 
[LVP] rob_it value predicted: false false 0x0 0x34f71ba 
[LVP] rob_it value predicted: false false 0x0 0x34f71ba 
[LVP] rob_it value predicted: false false 0x0 0x34f71ba 
[LVP] rob_it value predicted: false false 0x0 0x34f71ba 
[LVP] rob_it value predicted: false false 0x0 0x34f71ba 
[LVP] rob_it value predicted: false false 0x0 0x34f71ba 
[LVP] rob_it value predicted: false false 0x0 0x34f71ba 
[LVP] rob_it value predicted: false false 0x0 0x34f71ba 
[LVP] rob_it value predicted: false false 0x0 0x34f71ba 
[LVP] rob_it value predicted: false false 0x0 0x34f71ba 
[LVP] rob_it value predicted: false false 0x0 0x34f71ba 
[LVP] rob_it value predicted: false false 0x0 0x34f71ba 
[LVP] rob_it value predicted: false false 0x0 0x34f71ba 
[LVP] rob_it value predicted: false false 0x0 0x34f71ba 
[LVP] rob_it value predicted: false false 0x0 0x34f71ba 
[LVP] rob_it value predicted: false false 0x0 0x34f71ba 
[LVP] rob_it value predicted: false false 0x0 0x34f71ba 
[LVP] rob_it value predicted: false false 0x0 0x34f71ba 
[LVP] rob_it value predicted: false false 0x0 0x34f71ba 
[LVP] rob_it value predicted: false false 0x0 0x34f71ba 
[LVP] rob_it value predicted: false false 0x0 0x34f71ba 
[LVP] rob_it value predicted: false false 0x0 0x34f71ba 
[LVP] rob_it value predicted: false false 0x0 0x34f71ba 
[LVP] rob_it value predicted: false false 0x0 0x34f71ba 
[LVP] rob_it value predicted: false false 0x0 0x34f71ba 
[LVP] rob_it value predicted: false false 0x0 0x34f71ba 
[LVP] rob_it value predicted: false false 0x0 0x34f71ba 
[LVP] rob_it value predicted: false false 0x0 0x34f71ba 
[LVP] rob_it value predicted: false false 0x0 0x34f71ba 
[LVP] rob_it value predicted: false false 0x0 0x34f71ba 
[LVP] rob_it value predicted: false false 0x0 0x34f71ba 
[LVP] rob_it value predicted: false false 0x0 0x34f71ba 
[LVP] rob_it value predicted: false false 0x0 0x34f71ba 
[LVP] rob_it value predicted: false false 0x0 0x34f71ba 
[LVP] rob_it value predicted: false false 0x0 0x34f71ba 
[LVP] rob_it value predicted: false false 0x0 0x34f71ba 
[LVP] rob_it value predicted: false false 0x0 0x34f71ba 
[LVP] rob_it value predicted: false false 0x0 0x34f71ba 
[LVP] rob_it value predicted: false false 0x0 0x34f71ba 
[LVP] rob_it value predicted: false false 0x0 0x34f71ba 
[LVP] rob_it value predicted: false false 0x0 0x34f71ba 
[LVP] rob_it value predicted: false false 0x0 0x34f71ba 
[LVP] rob_it value predicted: false false 0x0 0x34f71ba 
[LVP] rob_it value predicted: false false 0x0 0x34f71ba 
[LVP] rob_it value predicted: false false 0x0 0x34f71ba 
[LVP] rob_it value predicted: false false 0x0 0x34f71ba 
[LVP] rob_it value predicted: false false 0x0 0x34f71ba 
[LVP] rob_it value predicted: false false 0x0 0x34f71ba 
[LVP] rob_it value predicted: false false 0x0 0x34f71ba 
[LVP] rob_it value predicted: false false 0x0 0x34f71ba 
[LVP] rob_it value predicted: false false 0x0 0x34f71ba 
[LVP] rob_it value predicted: false false 0x0 0x34f71ba 
[LVP] rob_it value predicted: false false 0x0 0x34f71ba 
[LVP] rob_it value predicted: false false 0x0 0x34f71ba 
[LVP] rob_it value predicted: false false 0x0 0x34f71ba 
[LVP] rob_it value predicted: false false 0x0 0x34f71ba 
[LVP] rob_it value predicted: false false 0x0 0x34f71ba 
[LVP] rob_it value predicted: false false 0x0 0x34f71ba 
[LVP] rob_it value predicted: false false 0x0 0x34f71ba 
[LVP] rob_it value predicted: false false 0x0 0x34f71ba 
[LVP] rob_it value predicted: false false 0x0 0x34f71ba 
[LVP] rob_it value predicted: false false 0x0 0x34f71ba 
[LVP] rob_it value predicted: false false 0x0 0x34f71ba 
[LVP] rob_it value predicted: false false 0x0 0x34f71ba 
[LVP] rob_it value predicted: false false 0x0 0x34f71ba 
[LVP] rob_it value predicted: false false 0x0 0x34f71ba 
[LVP] rob_it value predicted: false false 0x0 0x34f71ba 
[LVP] rob_it value predicted: false false 0x0 0x34f71ba 
[LVP] rob_it value predicted: false false 0x0 0x34f71ba 
[LVP] rob_it value predicted: false false 0x0 0x34f71ba 
[LVP] rob_it value predicted: false false 0x0 0x34f71ba 
[LVP] rob_it value predicted: false false 0x0 0x34f71ba 
[LVP] rob_it value predicted: false false 0x0 0x34f71ba 
[LVP] rob_it value predicted: false false 0x0 0x34f71ba 
[LVP] rob_it value predicted: false false 0x0 0x34f71ba 
[LVP] rob_it value predicted: false false 0x0 0x34f71ba 
[LVP] rob_it value predicted: false false 0x0 0x34f71ba 
[LVP] rob_it value predicted: false false 0x0 0x34f71ba 
[LVP] rob_it value predicted: false false 0x0 0x34f71ba 
[LVP] rob_it value predicted: false false 0x0 0x34f71ba 
[LVP] rob_it value predicted: false false 0x0 0x34f71ba 
[LVP] rob_it value predicted: false false 0x0 0x34f71ba 
[LVP] rob_it value predicted: false true 0x34f71f8 0x34f71ba 
[LVP] rob_it value predicted: false true 0x34f71b9 0x34f71ba 
[LVP] rob_it value predicted: false true 0x34f71b9 0x34f71ba 
[LVP] rob_it value predicted: false true 0x34f71b9 0x34f71ba 
[LVP] rob_it value predicted: false true 0x34f71ba 0x34f71ba 
[LVP] rob_it value predicted: false true 0x34f71ba 0x34f71ba 
[LVP] rob_it value predicted: false true 0x34f71ba 0x34f71ba 
[LVP] rob_it value predicted: false true 0x34f71ba 0x34f71ba 
[LVP] rob_it value predicted: true true 0x34f71bb 0x34f71ba 
[LVP] rob_it value predicted: true true 0x34f71bb 0x34f71ba 
[LVP] rob_it value predicted: true true 0x34f71bb 0x34f71ba 
[LVP] rob_it value predicted: true true 0x34f71bb 0x34f71ba 
[LVP] rob_it value predicted: true true 0x34f71bc 0x34f71ba 
[LVP] rob_it value predicted: true true 0x34f71bc 0x34f71ba 
[LVP] rob_it value predicted: true true 0x34f71bc 0x34f71ba 
[LVP] rob_it value predicted: true true 0x34f71bc 0x34f71ba 
[LVP] rob_it value predicted: true true 0x34f71bd 0x34f71ba 
[LVP] rob_it value predicted: true true 0x34f71bd 0x34f71ba 
[LVP] rob_it value predicted: true true 0x34f71bd 0x34f71ba 
[LVP] rob_it value predicted: true true 0x34f71bd 0x34f71ba 
[LVP] rob_it value predicted: true true 0x34f71ee 0x34f71ba 
[LVP] rob_it value predicted: false true 0x34f71b9 0x34f71ba 
[LVP] rob_it value predicted: true true 0x34f71ec 0x34f71ba 
[LVP] rob_it value predicted: false true 0x34f71ba 0x34f71ba 
[LVP] rob_it value predicted: false true 0x34f71ba 0x34f71ba 
[LVP] rob_it value predicted: true true 0x34f71bb 0x34f71ba 
[LVP] rob_it value predicted: true true 0x34f71bd 0x34f71ba 
[LVP] rob_it value predicted: true true 0x34f71ee 0x34f71ba 
[LVP] rob_it value predicted: true true 0x34f71bd 0x34f71ba 
[LVP] rob_it value predicted: false true 0x34f71ba 0x34f71ba 
[LVP] rob_it value predicted: true true 0x34f71bb 0x34f71ba 
[LVP] rob_it value predicted: true true 0x34f71bc 0x34f71ba 
[LVP] rob_it value predicted: true true 0x34f71bd 0x34f71ba 
[LVP] rob_it value predicted: true true 0x34f71ef 0x34f71ba 
[LVP] rob_it value predicted: true true 0x34f71ed 0x34f71ba 
[LVP] rob_it value predicted: true true 0x34f71bc 0x34f71ba 
[LVP] rob_it value predicted: true true 0x34f71b6 0x34f71ba 
[LVP] rob_it value predicted: true true 0x34f71bd 0x34f71ba 
[LVP] rob_it value predicted: true true 0x34f63f6 0x34f71ba 
[LVP] rob_it value predicted: true true 0x34f714d 0x34f71ba 
[LVP] rob_it value predicted: true true 0x34f63f6 0x34f71ba 
[LVP] rob_it value predicted: true true 0x34f63f6 0x34f71ba 
[LVP] rob_it value predicted: false false 0x0 0x34f71ba 
[LVP] rob_it value predicted: false false 0x0 0x34f71ba 
[LVP] rob_it value predicted: false false 0x0 0x34f71ba 
[LVP] rob_it value predicted: false false 0x0 0x34f71ba 
[LVP] rob_it value predicted: false false 0x0 0x34f71ba 
[LVP] rob_it value predicted: false false 0x0 0x34f71ba 
[LVP] rob_it value predicted: false false 0x0 0x34f71ba 
[LVP] rob_it value predicted: false false 0x0 0x34f71ba 
[LVP] rob_it value predicted: false false 0x0 0x34f71ba 
[LVP] rob_it value predicted: false false 0x0 0x34f71ba 
[LVP] rob_it value predicted: false false 0x0 0x34f71ba 
[LVP] rob_it value predicted: false false 0x0 0x34f71ba 
[LVP] rob_it value predicted: false false 0x0 0x34f71ba 
[LVP] rob_it value predicted: false false 0x0 0x34f71ba 
[LVP] rob_it value predicted: false false 0x0 0x34f71ba 
[LVP] rob_it value predicted: false false 0x0 0x34f71ba 
[LVP] rob_it value predicted: false false 0x0 0x34f71ba 
[LVP] rob_it value predicted: false false 0x0 0x34f71ba 
[LVP] rob_it value predicted: false false 0x0 0x34f71ba 
[LVP] rob_it value predicted: false false 0x0 0x34f71ba 
[LVP] rob_it value predicted: false false 0x0 0x34f71ba 
[LVP] rob_it value predicted: false false 0x0 0x34f71ba 
[LVP] rob_it value predicted: false false 0x0 0x34f71ba 
[LVP] rob_it value predicted: false false 0x0 0x34f71ba 
[LVP] rob_it value predicted: false false 0x0 0x34f71ba 
[LVP] rob_it value predicted: false false 0x0 0x34f71ba 
[LVP] rob_it value predicted: false false 0x0 0x34f71ba 
[LVP] rob_it value predicted: false false 0x0 0x34f71ba 
[LVP] rob_it value predicted: false false 0x0 0x34f71ba 
[LVP] rob_it value predicted: false false 0x0 0x34f71ba 
[LVP] rob_it value predicted: false false 0x0 0x34f71ba 
[LVP] rob_it value predicted: false false 0x0 0x34f71ba 
[LVP] rob_it value predicted: false false 0x0 0x34f71ba 
[LVP] rob_it value predicted: false false 0x0 0x34f71ba 
[LVP] rob_it value predicted: false false 0x0 0x34f71ba 
[LVP] rob_it value predicted: false false 0x0 0x34f71ba 
[LVP] rob_it value predicted: false false 0x0 0x34f71ba 
[LVP] rob_it value predicted: false false 0x0 0x34f71ba 
[LVP] rob_it value predicted: false false 0x0 0x34f71ba 
[LVP] rob_it value predicted: false false 0x0 0x34f71ba 
[LVP] rob_it value predicted: false false 0x0 0x34f71ba 
[LVP] rob_it value predicted: false false 0x0 0x34f71ba 
[LVP] rob_it value predicted: false false 0x0 0x34f71ba 
[LVP] rob_it value predicted: false false 0x0 0x34f71ba 
[LVP] rob_it value predicted: false false 0x0 0x34f71ba 
[LVP] rob_it value predicted: false false 0x0 0x34f71ba 
[LVP] rob_it value predicted: false false 0x0 0x34f71ba 
[LVP] rob_it value predicted: false false 0x0 0x34f71ba 
[LVP] rob_it value predicted: false false 0x0 0x34f71ba 
[LVP] rob_it value predicted: false false 0x0 0x34f71ba 
[LVP] rob_it value predicted: false false 0x0 0x34f71ba 
[LVP] rob_it value predicted: false false 0x0 0x34f71ba 
[LVP] rob_it value predicted: false false 0x0 0x34f71ba 
[LVP] rob_it value predicted: false false 0x0 0x34f71ba 
[LVP] rob_it value predicted: false false 0x0 0x34f71ba 
[LVP] rob_it value predicted: false false 0x0 0x34f71ba 
[LVP] rob_it value predicted: false false 0x0 0x34f71ba 
[LVP] rob_it value predicted: false false 0x0 0x34f71ba 
[LVP] rob_it value predicted: false false 0x0 0x34f71ba 
[LVP] rob_it value predicted: false false 0x0 0x34f71ba 
[LVP] rob_it value predicted: false false 0x0 0x34f71ba 
[LVP] rob_it value predicted: false false 0x0 0x34f71ba 
[LVP] rob_it value predicted: false false 0x0 0x34f71ba 
[LVP] rob_it value predicted: false false 0x0 0x34f71ba 
[LVP] rob_it value predicted: false false 0x0 0x34f71ba 
[LVP] rob_it value predicted: false false 0x0 0x34f71ba 
[LVP] rob_it value predicted: false false 0x0 0x34f71ba 
[LVP] rob_it value predicted: false false 0x0 0x34f71ba 
[LVP] rob_it value predicted: false false 0x0 0x34f71ba 
[LVP] rob_it value predicted: false false 0x0 0x34f71ba 
[LVP] rob_it value predicted: false false 0x0 0x34f71ba 
[LVP] rob_it value predicted: false false 0x0 0x34f71ba 
[LVP] rob_it value predicted: false false 0x0 0x34f71ba 
[LVP] rob_it value predicted: false false 0x0 0x34f71ba 
[LVP] rob_it value predicted: false false 0x0 0x34f71ba 
[LVP] rob_it value predicted: false false 0x0 0x34f71ba 
[LVP] rob_it value predicted: false false 0x0 0x34f71ba 
[LVP] rob_it value predicted: false false 0x0 0x34f71ba 
[LVP] rob_it value predicted: false false 0x0 0x34f71ba 
[LVP] rob_it value predicted: false false 0x0 0x34f71ba 
[LVP] rob_it value predicted: false false 0x0 0x34f71ba 
[LVP] rob_it value predicted: false false 0x0 0x34f71ba 
[LVP] rob_it value predicted: false false 0x0 0x34f71ba 
[LVP] rob_it value predicted: false false 0x0 0x34f71ba 
[LVP] rob_it value predicted: false false 0x0 0x34f71ba 
[LVP] rob_it value predicted: false false 0x0 0x34f71ba 
[INIT]   → Fetched instr_id: 499 ip: 0x7e7ad3daf609 stop_fetch: false
[INIT]   → Fetched instr_id: 500 ip: 0x7e7ad3daf6af stop_fetch: false
[INIT]   → Fetched instr_id: 501 ip: 0x7e7ad3daf6b2 stop_fetch: false
[INIT]   → Fetched instr_id: 502 ip: 0x7e7ad3daf640 stop_fetch: false
[INIT]   → Fetched instr_id: 503 ip: 0x7e7ad3daf644 stop_fetch: false
[INIT]   → Fetched instr_id: 504 ip: 0x7e7ad3daf647 stop_fetch: false
[INIT]   → Fetched instr_id: 505 ip: 0x7e7ad3daf64a stop_fetch: false
[INIT]   → Fetched instr_id: 506 ip: 0x7e7ad3daf64e stop_fetch: false
[INIT]   → Fetched instr_id: 507 ip: 0x7e7ad3daf651 stop_fetch: false
[INIT]   → Fetched instr_id: 508 ip: 0x7e7ad3daf655 stop_fetch: false
[INIT]   → Fetched instr_id: 509 ip: 0x7e7ad3daf659 stop_fetch: false
[INIT]   → Fetched instr_id: 510 ip: 0x7e7ad3daf65c stop_fetch: false
[INIT]   → Fetched instr_id: 511 ip: 0x7e7ad3daf65e stop_fetch: false
[INIT]   → Fetched instr_id: 512 ip: 0x7e7ad3daf660 stop_fetch: false
[INIT]   → Fetched instr_id: 513 ip: 0x7e7ad3daf663 stop_fetch: false
[INIT]   → Fetched instr_id: 514 ip: 0x7e7ad3daf665 stop_fetch: false
[INIT]   → Fetched instr_id: 515 ip: 0x7e7ad3daf66a stop_fetch: false
[INIT]   → Fetched instr_id: 516 ip: 0x7e7ad3daf66d stop_fetch: false
[INIT]   → Fetched instr_id: 517 ip: 0x7e7ad3daf672 stop_fetch: false
[INIT]   → Fetched instr_id: 518 ip: 0x7e7ad3daf67a stop_fetch: false
[LVP] rob_it value predicted: false true 0x34f71f8 0x34f71bb 
[LVP] rob_it value predicted: false true 0x34f71b9 0x34f71bb 
[LVP] rob_it value predicted: false true 0x34f71b9 0x34f71bb 
[LVP] rob_it value predicted: false true 0x34f71b9 0x34f71bb 
[LVP] rob_it value predicted: false true 0x34f71ba 0x34f71bb 
[LVP] rob_it value predicted: false true 0x34f71ba 0x34f71bb 
[LVP] rob_it value predicted: false true 0x34f71ba 0x34f71bb 
[LVP] rob_it value predicted: false true 0x34f71ba 0x34f71bb 
[LVP] rob_it value predicted: true true 0x34f71bb 0x34f71bb 
[LVP] rob_it value predicted: false
[LVP] rob_it value predicted: false
[LVP] CORREC[LVP] rob_it value predicted: true true 0x34f71bb 0x34f71bb 
[LVP] rob_it value predicted: false
[LVP] rob_it value predicted: false
[LVP] CORREC[LVP] rob_it value predicted: true true 0x34f71bb 0x34f71bb 
[LVP] rob_it value predicted: false
[LVP] rob_it value predicted: false
[LVP] CORREC[LVP] rob_it value predicted: true true 0x34f71bb 0x34f71bb 
[LVP] rob_it value predicted: false
[LVP] rob_it value predicted: false
[LVP] CORREC[LVP] rob_it value predicted: true true 0x34f71bc 0x34f71bb 
[LVP] rob_it value predicted: true true 0x34f71bc 0x34f71bb 
[LVP] rob_it value predicted: true true 0x34f71bc 0x34f71bb 
[LVP] rob_it value predicted: true true 0x34f71bc 0x34f71bb 
[LVP] rob_it value predicted: true true 0x34f71bd 0x34f71bb 
[LVP] rob_it value predicted: true true 0x34f71bd 0x34f71bb 
[LVP] rob_it value predicted: true true 0x34f71bd 0x34f71bb 
[LVP] rob_it value predicted: true true 0x34f71bd 0x34f71bb 
[LVP] rob_it value predicted: true true 0x34f71ee 0x34f71bb 
[LVP] rob_it value predicted: false true 0x34f71b9 0x34f71bb 
[LVP] rob_it value predicted: true true 0x34f71ec 0x34f71bb 
[LVP] rob_it value predicted: false true 0x34f71ba 0x34f71bb 
[LVP] rob_it value predicted: false true 0x34f71ba 0x34f71bb 
[LVP] rob_it value predicted: true true 0x34f71bb 0x34f71bb 
[LVP] rob_it value predicted: false
[LVP] rob_it value predicted: false
[LVP] CORREC[LVP] rob_it value predicted: true true 0x34f71bd 0x34f71bb 
[LVP] rob_it value predicted: true true 0x34f71ee 0x34f71bb 
[LVP] rob_it value predicted: true true 0x34f71bd 0x34f71bb 
[LVP] rob_it value predicted: false true 0x34f71ba 0x34f71bb 
[LVP] rob_it value predicted: true true 0x34f71bb 0x34f71bb 
[LVP] rob_it value predicted: false
[LVP] rob_it value predicted: false
[LVP] CORREC[LVP] rob_it value predicted: true true 0x34f71bc 0x34f71bb 
[LVP] rob_it value predicted: true true 0x34f71bd 0x34f71bb 
[LVP] rob_it value predicted: true true 0x34f71ef 0x34f71bb 
[LVP] rob_it value predicted: true true 0x34f71ed 0x34f71bb 
[LVP] rob_it value predicted: true true 0x34f71bc 0x34f71bb 
[LVP] rob_it value predicted: true true 0x34f71b6 0x34f71bb 
[LVP] rob_it value predicted: true true 0x34f71bd 0x34f71bb 
[LVP] rob_it value predicted: true true 0x34f63f6 0x34f71bb 
[LVP] rob_it value predicted: true true 0x34f714d 0x34f71bb 
[LVP] rob_it value predicted: true true 0x34f63f6 0x34f71bb 
[LVP] rob_it value predicted: true true 0x34f63f6 0x34f71bb 
[LVP] rob_it value predicted: false false 0x0 0x34f71bb 
[LVP] rob_it value predicted: false false 0x0 0x34f71bb 
[LVP] rob_it value predicted: false false 0x0 0x34f71bb 
[LVP] rob_it value predicted: false false 0x0 0x34f71bb 
[LVP] rob_it value predicted: false false 0x0 0x34f71bb 
[LVP] rob_it value predicted: false false 0x0 0x34f71bb 
[LVP] rob_it value predicted: false false 0x0 0x34f71bb 
[LVP] rob_it value predicted: false false 0x0 0x34f71bb 
[LVP] rob_it value predicted: false false 0x0 0x34f71bb 
[LVP] rob_it value predicted: false false 0x0 0x34f71bb 
[LVP] rob_it value predicted: false false 0x0 0x34f71bb 
[LVP] rob_it value predicted: false false 0x0 0x34f71bb 
[LVP] rob_it value predicted: false false 0x0 0x34f71bb 
[LVP] rob_it value predicted: false false 0x0 0x34f71bb 
[LVP] rob_it value predicted: false false 0x0 0x34f71bb 
[LVP] rob_it value predicted: false false 0x0 0x34f71bb 
[LVP] rob_it value predicted: false false 0x0 0x34f71bb 
[LVP] rob_it value predicted: false false 0x0 0x34f71bb 
[LVP] rob_it value predicted: false false 0x0 0x34f71bb 
[LVP] rob_it value predicted: false false 0x0 0x34f71bb 
[LVP] rob_it value predicted: false false 0x0 0x34f71bb 
[LVP] rob_it value predicted: false false 0x0 0x34f71bb 
[LVP] rob_it value predicted: false false 0x0 0x34f71bb 
[LVP] rob_it value predicted: false false 0x0 0x34f71bb 
[LVP] rob_it value predicted: false false 0x0 0x34f71bb 
[LVP] rob_it value predicted: false false 0x0 0x34f71bb 
[LVP] rob_it value predicted: false false 0x0 0x34f71bb 
[LVP] rob_it value predicted: false false 0x0 0x34f71bb 
[LVP] rob_it value predicted: false false 0x0 0x34f71bb 
[LVP] rob_it value predicted: false false 0x0 0x34f71bb 
[LVP] rob_it value predicted: false false 0x0 0x34f71bb 
[LVP] rob_it value predicted: false false 0x0 0x34f71bb 
[LVP] rob_it value predicted: false false 0x0 0x34f71bb 
[LVP] rob_it value predicted: false false 0x0 0x34f71bb 
[LVP] rob_it value predicted: false false 0x0 0x34f71bb 
[LVP] rob_it value predicted: false false 0x0 0x34f71bb 
[LVP] rob_it value predicted: false false 0x0 0x34f71bb 
[LVP] rob_it value predicted: false false 0x0 0x34f71bb 
[LVP] rob_it value predicted: false false 0x0 0x34f71bb 
[LVP] rob_it value predicted: false false 0x0 0x34f71bb 
[LVP] rob_it value predicted: false false 0x0 0x34f71bb 
[LVP] rob_it value predicted: false false 0x0 0x34f71bb 
[LVP] rob_it value predicted: false false 0x0 0x34f71bb 
[LVP] rob_it value predicted: false false 0x0 0x34f71bb 
[LVP] rob_it value predicted: false false 0x0 0x34f71bb 
[LVP] rob_it value predicted: false false 0x0 0x34f71bb 
[LVP] rob_it value predicted: false false 0x0 0x34f71bb 
[LVP] rob_it value predicted: false false 0x0 0x34f71bb 
[LVP] rob_it value predicted: false false 0x0 0x34f71bb 
[LVP] rob_it value predicted: false false 0x0 0x34f71bb 
[LVP] rob_it value predicted: false false 0x0 0x34f71bb 
[LVP] rob_it value predicted: false false 0x0 0x34f71bb 
[LVP] rob_it value predicted: false false 0x0 0x34f71bb 
[LVP] rob_it value predicted: false false 0x0 0x34f71bb 
[LVP] rob_it value predicted: false false 0x0 0x34f71bb 
[LVP] rob_it value predicted: false false 0x0 0x34f71bb 
[LVP] rob_it value predicted: false false 0x0 0x34f71bb 
[LVP] rob_it value predicted: false false 0x0 0x34f71bb 
[LVP] rob_it value predicted: false false 0x0 0x34f71bb 
[LVP] rob_it value predicted: false false 0x0 0x34f71bb 
[LVP] rob_it value predicted: false false 0x0 0x34f71bb 
[LVP] rob_it value predicted: false false 0x0 0x34f71bb 
[LVP] rob_it value predicted: false false 0x0 0x34f71bb 
[LVP] rob_it value predicted: false false 0x0 0x34f71bb 
[LVP] rob_it value predicted: false false 0x0 0x34f71bb 
[LVP] rob_it value predicted: false false 0x0 0x34f71bb 
[LVP] rob_it value predicted: false false 0x0 0x34f71bb 
[LVP] rob_it value predicted: false false 0x0 0x34f71bb 
[LVP] rob_it value predicted: false false 0x0 0x34f71bb 
[LVP] rob_it value predicted: false false 0x0 0x34f71bb 
[LVP] rob_it value predicted: false false 0x0 0x34f71bb 
[LVP] rob_it value predicted: false false 0x0 0x34f71bb 
[LVP] rob_it value predicted: false false 0x0 0x34f71bb 
[LVP] rob_it value predicted: false false 0x0 0x34f71bb 
[LVP] rob_it value predicted: false false 0x0 0x34f71bb 
[LVP] rob_it value predicted: false false 0x0 0x34f71bb 
[LVP] rob_it value predicted: false false 0x0 0x34f71bb 
[LVP] rob_it value predicted: false false 0x0 0x34f71bb 
[LVP] rob_it value predicted: false false 0x0 0x34f71bb 
[LVP] rob_it value predicted: false false 0x0 0x34f71bb 
[LVP] rob_it value predicted: false false 0x0 0x34f71bb 
[LVP] rob_it value predicted: false false 0x0 0x34f71bb 
[LVP] rob_it value predicted: false false 0x0 0x34f71bb 
[LVP] rob_it value predicted: false false 0x0 0x34f71bb 
[LVP] rob_it value predicted: false false 0x0 0x34f71bb 
[LVP] rob_it value predicted: false false 0x0 0x34f71bb 
[INIT]   → Fetched instr_id: 519 ip: 0x7e7ad3daf67e stop_fetch: false
[INIT]   → Fetched instr_id: 520 ip: 0x7e7ad3daf682 stop_fetch: false
[INIT]   → Fetched instr_id: 521 ip: 0x7e7ad3daf685 stop_fetch: false
[INIT]   → Fetched instr_id: 522 ip: 0x7e7ad3daf688 stop_fetch: false
[INIT]   → Fetched instr_id: 523 ip: 0x7e7ad3daf694 stop_fetch: false
[INIT]   → Fetched instr_id: 524 ip: 0x7e7ad3daf698 stop_fetch: false
[INIT]   → Fetched instr_id: 525 ip: 0x7e7ad3daf6a7 stop_fetch: false
[INIT]   → Fetched instr_id: 526 ip: 0x7e7ad3daf6ab stop_fetch: false
[INIT]   → Fetched instr_id: 527 ip: 0x7e7ad3daf6af stop_fetch: false
[INIT]   → Fetched instr_id: 528 ip: 0x7e7ad3daf6b2 stop_fetch: false
[INIT]   → Fetched instr_id: 529 ip: 0x7e7ad3daf640 stop_fetch: false
[INIT]   → Fetched instr_id: 530 ip: 0x7e7ad3daf644 stop_fetch: false
[INIT]   → Fetched instr_id: 531 ip: 0x7e7ad3daf647 stop_fetch: false
[INIT]   → Fetched instr_id: 532 ip: 0x7e7ad3daf64a stop_fetch: false
[INIT]   → Fetched instr_id: 533 ip: 0x7e7ad3daf64e stop_fetch: false
[INIT]   → Fetched instr_id: 534 ip: 0x7e7ad3daf651 stop_fetch: false
[INIT]   → Fetched instr_id: 535 ip: 0x7e7ad3daf655 stop_fetch: false
[INIT]   → Fetched instr_id: 536 ip: 0x7e7ad3daf659 stop_fetch: false
[INIT]   → Fetched instr_id: 537 ip: 0x7e7ad3daf65c stop_fetch: false
[INIT]   → Fetched instr_id: 538 ip: 0x7e7ad3daf65e stop_fetch: false
[INIT]   → Fetched instr_id: 539 ip: 0x7e7ad3daf660 stop_fetch: false
[INIT]   → Fetched instr_id: 540 ip: 0x7e7ad3daf663 stop_fetch: false
[INIT]   → Fetched instr_id: 541 ip: 0x7e7ad3daf665 stop_fetch: false
[INIT]   → Fetched instr_id: 542 ip: 0x7e7ad3daf66a stop_fetch: false
[INIT]   → Fetched instr_id: 543 ip: 0x7e7ad3daf66d stop_fetch: false
[INIT]   → Fetched instr_id: 544 ip: 0x7e7ad3daf672 stop_fetch: false
[INIT]   → Fetched instr_id: 545 ip: 0x7e7ad3daf67a stop_fetch: false
[INIT]   → Fetched instr_id: 546 ip: 0x7e7ad3daf67e stop_fetch: false
[INIT]   → Fetched instr_id: 547 ip: 0x7e7ad3daf682 stop_fetch: false
[INIT]   → Fetched instr_id: 548 ip: 0x7e7ad3daf685 stop_fetch: false
[INIT]   → Fetched instr_id: 549 ip: 0x7e7ad3daf688 stop_fetch: false
[INIT]   → Fetched instr_id: 550 ip: 0x7e7ad3daf694 stop_fetch: false
[INIT]   → Fetched instr_id: 551 ip: 0x7e7ad3daf698 stop_fetch: false
[INIT]   → Fetched instr_id: 552 ip: 0x7e7ad3daf6a7 stop_fetch: false
[INIT]   → Fetched instr_id: 553 ip: 0x7e7ad3daf6ab stop_fetch: false
[LVP] rob_it value predicted: true true 0x34f71b7 0x34f71b9 
[LVP] rob_it value predicted: true false 0x34f71b7 0x34f71b9 
[LVP] rob_it value predicted: true false 0x34f71b8 0x34f71b9 
[LVP] rob_it value predicted: true false 0x34f71b8 0x34f71b9 
[LVP] rob_it value predicted: true false 0x34f71b8 0x34f71b9 
[LVP] rob_it value predicted: false true 0x34f71ba 0x34f71b9 
[LVP] rob_it value predicted: false true 0x34f71ba 0x34f71b9 
[LVP] rob_it value predicted: false true 0x34f71ba 0x34f71b9 
[LVP] rob_it value predicted: false true 0x34f71bb 0x34f71b9 
[LVP] rob_it value predicted: false true 0x34f71bb 0x34f71b9 
[LVP] rob_it value predicted: false true 0x34f71bb 0x34f71b9 
[LVP] rob_it value predicted: false true 0x34f71bb 0x34f71b9 
[LVP] rob_it value predicted: true true 0x34f71bc 0x34f71b9 
[LVP] rob_it value predicted: true true 0x34f71bc 0x34f71b9 
[LVP] rob_it value predicted: true true 0x34f71bc 0x34f71b9 
[LVP] rob_it value predicted: true true 0x34f71bc 0x34f71b9 
[LVP] rob_it value predicted: true true 0x34f71bd 0x34f71b9 
[LVP] rob_it value predicted: true true 0x34f71bd 0x34f71b9 
[LVP] rob_it value predicted: true true 0x34f71bd 0x34f71b9 
[LVP] rob_it value predicted: true true 0x34f71bd 0x34f71b9 
[LVP] rob_it value predicted: true true 0x34f71ee 0x34f71b9 
[LVP] rob_it value predicted: false true 0x34f71b9 0x34f71b9 
[LVP] rob_it value predicted: true true 0x34f71ec 0x34f71b9 
[LVP] rob_it value predicted: false true 0x34f71ba 0x34f71b9 
[LVP] rob_it value predicted: false true 0x34f71ba 0x34f71b9 
[LVP] rob_it value predicted: false true 0x34f71bb 0x34f71b9 
[LVP] rob_it value predicted: true true 0x34f71bd 0x34f71b9 
[LVP] rob_it value predicted: true true 0x34f71ee 0x34f71b9 
[LVP] rob_it value predicted: true true 0x34f71bd 0x34f71b9 
[LVP] rob_it value predicted: false true 0x34f71ba 0x34f71b9 
[LVP] rob_it value predicted: false true 0x34f71bb 0x34f71b9 
[LVP] rob_it value predicted: true true 0x34f71bc 0x34f71b9 
[LVP] rob_it value predicted: true true 0x34f71bd 0x34f71b9 
[LVP] rob_it value predicted: true true 0x34f71ef 0x34f71b9 
[LVP] rob_it value predicted: true true 0x34f71ed 0x34f71b9 
[...]
Arch reg: 212    Phys reg:  -1            Arch reg: 212    Phys reg:  -1
Arch reg: 213    Phys reg:  -1            Arch reg: 213    Phys reg:  -1
Arch reg: 214    Phys reg:  -1            Arch reg: 214    Phys reg:  -1
Arch reg: 215    Phys reg:  -1            Arch reg: 215    Phys reg:  -1
Arch reg: 216    Phys reg:  -1            Arch reg: 216    Phys reg:  -1
Arch reg: 217    Phys reg:  -1            Arch reg: 217    Phys reg:  -1
Arch reg: 218    Phys reg:  -1            Arch reg: 218    Phys reg:  -1
Arch reg: 219    Phys reg:  -1            Arch reg: 219    Phys reg:  -1
Arch reg: 220    Phys reg:  -1            Arch reg: 220    Phys reg:  -1
Arch reg: 221    Phys reg:  -1            Arch reg: 221    Phys reg:  -1
Arch reg: 222    Phys reg:  -1            Arch reg: 222    Phys reg:  -1
Arch reg: 223    Phys reg:  -1            Arch reg: 223    Phys reg:  -1
Arch reg: 224    Phys reg:  -1            Arch reg: 224    Phys reg:  -1
Arch reg: 225    Phys reg:  -1            Arch reg: 225    Phys reg:  -1
Arch reg: 226    Phys reg:  -1            Arch reg: 226    Phys reg:  -1
Arch reg: 227    Phys reg:  -1            Arch reg: 227    Phys reg:  -1
Arch reg: 228    Phys reg:  -1            Arch reg: 228    Phys reg:  -1
Arch reg: 229    Phys reg:  -1            Arch reg: 229    Phys reg:  -1
Arch reg: 230    Phys reg:  -1            Arch reg: 230    Phys reg:  -1
Arch reg: 231    Phys reg:  -1            Arch reg: 231    Phys reg:  -1
Arch reg: 232    Phys reg:  -1            Arch reg: 232    Phys reg:  -1
Arch reg: 233    Phys reg:  -1            Arch reg: 233    Phys reg:  -1
Arch reg: 234    Phys reg:  -1            Arch reg: 234    Phys reg:  -1
Arch reg: 235    Phys reg:  -1            Arch reg: 235    Phys reg:  -1
Arch reg: 236    Phys reg:  -1            Arch reg: 236    Phys reg:  -1
Arch reg: 237    Phys reg:  -1            Arch reg: 237    Phys reg:  -1
Arch reg: 238    Phys reg:  -1            Arch reg: 238    Phys reg:  -1
Arch reg: 239    Phys reg:  -1            Arch reg: 239    Phys reg:  -1
Arch reg: 240    Phys reg:  -1            Arch reg: 240    Phys reg:  -1
Arch reg: 241    Phys reg:  -1            Arch reg: 241    Phys reg:  -1
Arch reg: 242    Phys reg:  -1            Arch reg: 242    Phys reg:  -1
Arch reg: 243    Phys reg:  -1            Arch reg: 243    Phys reg:  -1
Arch reg: 244    Phys reg:  -1            Arch reg: 244    Phys reg:  -1
Arch reg: 245    Phys reg:  -1            Arch reg: 245    Phys reg:  -1
Arch reg: 246    Phys reg:  -1            Arch reg: 246    Phys reg:  -1
Arch reg: 247    Phys reg:  -1            Arch reg: 247    Phys reg:  -1
Arch reg: 248    Phys reg:  -1            Arch reg: 248    Phys reg:  -1
Arch reg: 249    Phys reg:  -1            Arch reg: 249    Phys reg:  -1
Arch reg: 250    Phys reg:  -1            Arch reg: 250    Phys reg:  -1
Arch reg: 251    Phys reg:  -1            Arch reg: 251    Phys reg:  -1
Arch reg: 252    Phys reg:  -1            Arch reg: 252    Phys reg:  -1
Arch reg: 253    Phys reg:  -1            Arch reg: 253    Phys reg:  -1
Arch reg: 254    Phys reg:  -1            Arch reg: 254    Phys reg:  -1
Arch reg: 255    Phys reg:  -1            Arch reg: 255    Phys reg:  -1

Physical Register File
Phys reg:   0	 Arch reg:   0	 Producer: 0	 Valid: false	 Busy: false
Phys reg:   1	 Arch reg:   0	 Producer: 0	 Valid: false	 Busy: false
Phys reg:   2	 Arch reg:   0	 Producer: 0	 Valid: false	 Busy: false
Phys reg:   3	 Arch reg:   0	 Producer: 0	 Valid: false	 Busy: false
Phys reg:   4	 Arch reg:   0	 Producer: 0	 Valid: false	 Busy: false
Phys reg:   5	 Arch reg:   0	 Producer: 0	 Valid: false	 Busy: false
Phys reg:   6	 Arch reg:   0	 Producer: 0	 Valid: false	 Busy: false
Phys reg:   7	 Arch reg:   0	 Producer: 0	 Valid: false	 Busy: false
Phys reg:   8	 Arch reg:   0	 Producer: 0	 Valid: false	 Busy: false
Phys reg:   9	 Arch reg:   0	 Producer: 0	 Valid: false	 Busy: false
Phys reg:  10	 Arch reg:   0	 Producer: 0	 Valid: false	 Busy: false
Phys reg:  11	 Arch reg:   0	 Producer: 0	 Valid: false	 Busy: false
Phys reg:  12	 Arch reg:   0	 Producer: 0	 Valid: false	 Busy: false
Phys reg:  13	 Arch reg:   0	 Producer: 0	 Valid: false	 Busy: false
Phys reg:  14	 Arch reg:   0	 Producer: 0	 Valid: false	 Busy: false
Phys reg:  15	 Arch reg:   0	 Producer: 0	 Valid: false	 Busy: false
Phys reg:  16	 Arch reg:   0	 Producer: 0	 Valid: false	 Busy: false
Phys reg:  17	 Arch reg:   0	 Producer: 0	 Valid: false	 Busy: false
Phys reg:  18	 Arch reg:   0	 Producer: 0	 Valid: false	 Busy: false
Phys reg:  19	 Arch reg:   0	 Producer: 0	 Valid: false	 Busy: false
Phys reg:  20	 Arch reg:   0	 Producer: 0	 Valid: false	 Busy: false
Phys reg:  21	 Arch reg:   0	 Producer: 0	 Valid: false	 Busy: false
Phys reg:  22	 Arch reg:   0	 Producer: 0	 Valid: false	 Busy: false
Phys reg:  23	 Arch reg:   0	 Producer: 0	 Valid: false	 Busy: false
Phys reg:  24	 Arch reg:   0	 Producer: 0	 Valid: false	 Busy: false
Phys reg:  25	 Arch reg:   0	 Producer: 0	 Valid: false	 Busy: false
Phys reg:  26	 Arch reg:   0	 Producer: 0	 Valid: false	 Busy: false
Phys reg:  27	 Arch reg:   0	 Producer: 0	 Valid: false	 Busy: false
Phys reg:  28	 Arch reg:   0	 Producer: 0	 Valid: false	 Busy: false
Phys reg:  29	 Arch reg:   0	 Producer: 0	 Valid: false	 Busy: false
Phys reg:  30	 Arch reg:   0	 Producer: 0	 Valid: false	 Busy: false
Phys reg:  31	 Arch reg:   0	 Producer: 0	 Valid: false	 Busy: false
Phys reg:  32	 Arch reg:   0	 Producer: 0	 Valid: false	 Busy: false
Phys reg:  33	 Arch reg:   0	 Producer: 0	 Valid: false	 Busy: false
Phys reg:  34	 Arch reg:   0	 Producer: 0	 Valid: false	 Busy: false
Phys reg:  35	 Arch reg:   0	 Producer: 0	 Valid: false	 Busy: false
Phys reg:  36	 Arch reg:   0	 Producer: 0	 Valid: false	 Busy: false
Phys reg:  37	 Arch reg:   0	 Producer: 0	 Valid: false	 Busy: false
Phys reg:  38	 Arch reg:   0	 Producer: 0	 Valid: false	 Busy: false
Phys reg:  39	 Arch reg:   0	 Producer: 0	 Valid: false	 Busy: false
Phys reg:  40	 Arch reg:   0	 Producer: 0	 Valid: false	 Busy: false
Phys reg:  41	 Arch reg:   0	 Producer: 0	 Valid: false	 Busy: false
Phys reg:  42	 Arch reg:   0	 Producer: 0	 Valid: false	 Busy: false
Phys reg:  43	 Arch reg:   0	 Producer: 0	 Valid: false	 Busy: false
Phys reg:  44	 Arch reg:   0	 Producer: 0	 Valid: false	 Busy: false
Phys reg:  45	 Arch reg:   0	 Producer: 0	 Valid: false	 Busy: false
Phys reg:  46	 Arch reg:   0	 Producer: 0	 Valid: false	 Busy: false
Phys reg:  47	 Arch reg:   0	 Producer: 0	 Valid: false	 Busy: false
Phys reg:  48	 Arch reg:   0	 Producer: 0	 Valid: false	 Busy: false
Phys reg:  49	 Arch reg:   0	 Producer: 0	 Valid: false	 Busy: false
Phys reg:  50	 Arch reg:   0	 Producer: 0	 Valid: false	 Busy: false
Phys reg:  51	 Arch reg:   0	 Producer: 0	 Valid: false	 Busy: false
Phys reg:  52	 Arch reg:   0	 Producer: 0	 Valid: false	 Busy: false
Phys reg:  53	 Arch reg:   0	 Producer: 0	 Valid: false	 Busy: false
Phys reg:  54	 Arch reg:   0	 Producer: 0	 Valid: false	 Busy: false
Phys reg:  55	 Arch reg:   0	 Producer: 0	 Valid: false	 Busy: false
Phys reg:  56	 Arch reg:   0	 Producer: 0	 Valid: false	 Busy: false
Phys reg:  57	 Arch reg:   0	 Producer: 0	 Valid: false	 Busy: false
Phys reg:  58	 Arch reg:   0	 Producer: 0	 Valid: false	 Busy: false
Phys reg:  59	 Arch reg:   0	 Producer: 0	 Valid: false	 Busy: false
Phys reg:  60	 Arch reg:   0	 Producer: 0	 Valid: false	 Busy: false
Phys reg:  61	 Arch reg:   0	 Producer: 0	 Valid: false	 Busy: false
Phys reg:  62	 Arch reg:   0	 Producer: 0	 Valid: false	 Busy: false
Phys reg:  63	 Arch reg:   0	 Producer: 0	 Valid: false	 Busy: false
Phys reg:  64	 Arch reg:   0	 Producer: 0	 Valid: false	 Busy: false
Phys reg:  65	 Arch reg:   0	 Producer: 0	 Valid: false	 Busy: false
Phys reg:  66	 Arch reg:   0	 Producer: 0	 Valid: false	 Busy: false
Phys reg:  67	 Arch reg:   0	 Producer: 0	 Valid: false	 Busy: false
Phys reg:  68	 Arch reg:   0	 Producer: 0	 Valid: false	 Busy: false
Phys reg:  69	 Arch reg:   0	 Producer: 0	 Valid: false	 Busy: false
Phys reg:  70	 Arch reg:   0	 Producer: 0	 Valid: false	 Busy: false
Phys reg:  71	 Arch reg:   0	 Producer: 0	 Valid: false	 Busy: false
Phys reg:  72	 Arch reg:   0	 Producer: 0	 Valid: false	 Busy: false
Phys reg:  73	 Arch reg:   0	 Producer: 0	 Valid: false	 Busy: false
Phys reg:  74	 Arch reg:   0	 Producer: 0	 Valid: false	 Busy: false
Phys reg:  75	 Arch reg:   0	 Producer: 0	 Valid: false	 Busy: false
Phys reg:  76	 Arch reg:   0	 Producer: 0	 Valid: false	 Busy: false
Phys reg:  77	 Arch reg:   0	 Producer: 0	 Valid: false	 Busy: false
Phys reg:  78	 Arch reg:   0	 Producer: 0	 Valid: false	 Busy: false
Phys reg:  79	 Arch reg:   0	 Producer: 0	 Valid: false	 Busy: false
Phys reg:  80	 Arch reg:   0	 Producer: 0	 Valid: false	 Busy: false
Phys reg:  81	 Arch reg:   0	 Producer: 0	 Valid: false	 Busy: false
Phys reg:  82	 Arch reg:   0	 Producer: 0	 Valid: false	 Busy: false
Phys reg:  83	 Arch reg:   0	 Producer: 0	 Valid: false	 Busy: false
Phys reg:  84	 Arch reg:   0	 Producer: 0	 Valid: false	 Busy: false
Phys reg:  85	 Arch reg:   0	 Producer: 0	 Valid: false	 Busy: false
Phys reg:  86	 Arch reg:   0	 Producer: 0	 Valid: false	 Busy: false
Phys reg:  87	 Arch reg:   0	 Producer: 0	 Valid: false	 Busy: false
Phys reg:  88	 Arch reg:   0	 Producer: 0	 Valid: false	 Busy: false
Phys reg:  89	 Arch reg:   0	 Producer: 0	 Valid: false	 Busy: false
Phys reg:  90	 Arch reg:   0	 Producer: 0	 Valid: false	 Busy: false
Phys reg:  91	 Arch reg:   0	 Producer: 0	 Valid: false	 Busy: false
Phys reg:  92	 Arch reg:   0	 Producer: 0	 Valid: false	 Busy: false
Phys reg:  93	 Arch reg:   0	 Producer: 0	 Valid: false	 Busy: false
Phys reg:  94	 Arch reg:   0	 Producer: 0	 Valid: false	 Busy: false
Phys reg:  95	 Arch reg:   0	 Producer: 0	 Valid: false	 Busy: false
Phys reg:  96	 Arch reg:   0	 Producer: 0	 Valid: false	 Busy: false
Phys reg:  97	 Arch reg:   0	 Producer: 0	 Valid: false	 Busy: false
Phys reg:  98	 Arch reg:   0	 Producer: 0	 Valid: false	 Busy: false
Phys reg:  99	 Arch reg:   0	 Producer: 0	 Valid: false	 Busy: false
Phys reg: 100	 Arch reg:   0	 Producer: 0	 Valid: false	 Busy: false
Phys reg: 101	 Arch reg:   0	 Producer: 0	 Valid: false	 Busy: false
Phys reg: 102	 Arch reg:   0	 Producer: 0	 Valid: false	 Busy: false
Phys reg: 103	 Arch reg:   0	 Producer: 0	 Valid: false	 Busy: false
Phys reg: 104	 Arch reg:   0	 Producer: 0	 Valid: false	 Busy: false
Phys reg: 105	 Arch reg:   0	 Producer: 0	 Valid: false	 Busy: false
Phys reg: 106	 Arch reg:   0	 Producer: 0	 Valid: false	 Busy: false
Phys reg: 107	 Arch reg:   0	 Producer: 0	 Valid: false	 Busy: false
Phys reg: 108	 Arch reg:   0	 Producer: 0	 Valid: false	 Busy: false
Phys reg: 109	 Arch reg:   0	 Producer: 0	 Valid: false	 Busy: false
Phys reg: 110	 Arch reg:   0	 Producer: 0	 Valid: false	 Busy: false
Phys reg: 111	 Arch reg:   0	 Producer: 0	 Valid: false	 Busy: false
Phys reg: 112	 Arch reg:   0	 Producer: 0	 Valid: false	 Busy: false
Phys reg: 113	 Arch reg:   0	 Producer: 0	 Valid: false	 Busy: false
Phys reg: 114	 Arch reg:   0	 Producer: 0	 Valid: false	 Busy: false
Phys reg: 115	 Arch reg:   0	 Producer: 0	 Valid: false	 Busy: false
Phys reg: 116	 Arch reg:   0	 Producer: 0	 Valid: false	 Busy: false
Phys reg: 117	 Arch reg:   0	 Producer: 0	 Valid: false	 Busy: false
Phys reg: 118	 Arch reg:   0	 Producer: 0	 Valid: false	 Busy: false
Phys reg: 119	 Arch reg:   0	 Producer: 0	 Valid: false	 Busy: false
Phys reg: 120	 Arch reg:   0	 Producer: 0	 Valid: false	 Busy: false
Phys reg: 121	 Arch reg:   0	 Producer: 0	 Valid: false	 Busy: false
Phys reg: 122	 Arch reg:   0	 Producer: 0	 Valid: false	 Busy: false
Phys reg: 123	 Arch reg:   0	 Producer: 0	 Valid: false	 Busy: false
Phys reg: 124	 Arch reg:   0	 Producer: 0	 Valid: false	 Busy: false
Phys reg: 125	 Arch reg:   0	 Producer: 0	 Valid: false	 Busy: false
Phys reg: 126	 Arch reg:   0	 Producer: 0	 Valid: false	 Busy: false
Phys reg: 127	 Arch reg:   0	 Producer: 0	 Valid: false	 Busy: false

[cpu0_LQ] entry:   0 empty
[cpu0_LQ] entry:   1 empty
[cpu0_LQ] entry:   2 empty
[cpu0_LQ] entry:   3 empty
[cpu0_LQ] entry:   4 empty
[cpu0_LQ] entry:   5 empty
[cpu0_LQ] entry:   6 empty
[cpu0_LQ] entry:   7 empty
[cpu0_LQ] entry:   8 empty
[cpu0_LQ] entry:   9 empty
[cpu0_LQ] entry:  10 empty
[cpu0_LQ] entry:  11 empty
[cpu0_LQ] entry:  12 empty
[cpu0_LQ] entry:  13 empty
[cpu0_LQ] entry:  14 empty
[cpu0_LQ] entry:  15 empty
[cpu0_LQ] entry:  16 empty
[cpu0_LQ] entry:  17 empty
[cpu0_LQ] entry:  18 empty
[cpu0_LQ] entry:  19 empty
[cpu0_LQ] entry:  20 empty
[cpu0_LQ] entry:  21 empty
[cpu0_LQ] entry:  22 empty
[cpu0_LQ] entry:  23 empty
[cpu0_LQ] entry:  24 empty
[cpu0_LQ] entry:  25 empty
[cpu0_LQ] entry:  26 empty
[cpu0_LQ] entry:  27 empty
[cpu0_LQ] entry:  28 empty
[cpu0_LQ] entry:  29 empty
[cpu0_LQ] entry:  30 empty
[cpu0_LQ] entry:  31 empty
[cpu0_LQ] entry:  32 empty
[cpu0_LQ] entry:  33 empty
[cpu0_LQ] entry:  34 empty
[cpu0_LQ] entry:  35 empty
[cpu0_LQ] entry:  36 empty
[cpu0_LQ] entry:  37 empty
[cpu0_LQ] entry:  38 empty
[cpu0_LQ] entry:  39 empty
[cpu0_LQ] entry:  40 empty
[cpu0_LQ] entry:  41 empty
[cpu0_LQ] entry:  42 empty
[cpu0_LQ] entry:  43 empty
[cpu0_LQ] entry:  44 empty
[cpu0_LQ] entry:  45 empty
[cpu0_LQ] entry:  46 empty
[cpu0_LQ] entry:  47 empty
[cpu0_LQ] entry:  48 empty
[cpu0_LQ] entry:  49 empty
[cpu0_LQ] entry:  50 empty
[cpu0_LQ] entry:  51 empty
[cpu0_LQ] entry:  52 empty
[cpu0_LQ] entry:  53 empty
[cpu0_LQ] entry:  54 empty
[cpu0_LQ] entry:  55 empty
[cpu0_LQ] entry:  56 empty
[cpu0_LQ] entry:  57 empty
[cpu0_LQ] entry:  58 empty
[cpu0_LQ] entry:  59 empty
[cpu0_LQ] entry:  60 empty
[cpu0_LQ] entry:  61 empty
[cpu0_LQ] entry:  62 empty
[cpu0_LQ] entry:  63 empty
[cpu0_LQ] entry:  64 empty
[cpu0_LQ] entry:  65 empty
[cpu0_LQ] entry:  66 empty
[cpu0_LQ] entry:  67 empty
[cpu0_LQ] entry:  68 empty
[cpu0_LQ] entry:  69 empty
[cpu0_LQ] entry:  70 empty
[cpu0_LQ] entry:  71 empty
[cpu0_LQ] entry:  72 empty
[cpu0_LQ] entry:  73 empty
[cpu0_LQ] entry:  74 empty
[cpu0_LQ] entry:  75 empty
[cpu0_LQ] entry:  76 empty
[cpu0_LQ] entry:  77 empty
[cpu0_LQ] entry:  78 empty
[cpu0_LQ] entry:  79 empty
[cpu0_LQ] entry:  80 empty
[cpu0_LQ] entry:  81 empty
[cpu0_LQ] entry:  82 empty
[cpu0_LQ] entry:  83 empty
[cpu0_LQ] entry:  84 empty
[cpu0_LQ] entry:  85 empty
[cpu0_LQ] entry:  86 empty
[cpu0_LQ] entry:  87 empty
[cpu0_LQ] entry:  88 empty
[cpu0_LQ] entry:  89 empty
[cpu0_LQ] entry:  90 empty
[cpu0_LQ] entry:  91 empty
[cpu0_LQ] entry:  92 empty
[cpu0_LQ] entry:  93 empty
[cpu0_LQ] entry:  94 empty
[cpu0_LQ] entry:  95 empty
[cpu0_LQ] entry:  96 empty
[cpu0_LQ] entry:  97 empty
[cpu0_LQ] entry:  98 empty
[cpu0_LQ] entry:  99 empty
[cpu0_LQ] entry: 100 empty
[cpu0_LQ] entry: 101 empty
[cpu0_LQ] entry: 102 empty
[cpu0_LQ] entry: 103 empty
[cpu0_LQ] entry: 104 empty
[cpu0_LQ] entry: 105 empty
[cpu0_LQ] entry: 106 empty
[cpu0_LQ] entry: 107 empty
[cpu0_LQ] entry: 108 empty
[cpu0_LQ] entry: 109 empty
[cpu0_LQ] entry: 110 empty
[cpu0_LQ] entry: 111 empty
[cpu0_LQ] entry: 112 empty
[cpu0_LQ] entry: 113 empty
[cpu0_LQ] entry: 114 empty
[cpu0_LQ] entry: 115 empty
[cpu0_LQ] entry: 116 empty
[cpu0_LQ] entry: 117 empty
[cpu0_LQ] entry: 118 empty
[cpu0_LQ] entry: 119 empty
[cpu0_LQ] entry: 120 empty
[cpu0_LQ] entry: 121 empty
[cpu0_LQ] entry: 122 empty
[cpu0_LQ] entry: 123 empty
[cpu0_LQ] entry: 124 empty
[cpu0_LQ] entry: 125 empty
[cpu0_LQ] entry: 126 empty
[cpu0_LQ] entry: 127 empty

[cpu0_SQ] entry:   0 instr_id: 924 address: 0xb6bd53c8 fetch_issued: true event_cycle: 2594 LQ waiting: []
[cpu0_SQ] entry:   1 instr_id: 932 address: 0xb6bd53d0 fetch_issued: true event_cycle: 2596 LQ waiting: []
[cpu0_SQ] entry:   2 instr_id: 940 address: 0xb6bd53d8 fetch_issued: true event_cycle: 2598 LQ waiting: []
[cpu0_SQ] entry:   3 instr_id: 948 address: 0xb6bd53e8 fetch_issued: true event_cycle: 2605 LQ waiting: []
[cpu0_SQ] entry:   4 instr_id: 1036 address: 0xb6bd5428 fetch_issued: true event_cycle: 2614 LQ waiting: []
[cpu0_SQ] entry:   5 instr_id: 1044 address: 0xb6bd5488 fetch_issued: true event_cycle: 2621 LQ waiting: []
[cpu0_SQ] entry:   6 instr_id: 1052 address: 0xb6bd5490 fetch_issued: true event_cycle: 2627 LQ waiting: []

cpu0_STLB_MSHR empty

cpu0_STLB_tags empty

cpu0_STLB_translation empty

cpu0_STLB_RQ empty

cpu0_STLB_WQ empty

cpu0_STLB_PQ empty

cpu0_STLB_RQ empty

cpu0_STLB_WQ empty

cpu0_STLB_PQ empty

cpu0_STLB_RQ empty

cpu0_STLB_WQ empty

cpu0_STLB_PQ empty

cpu0_L2C_MSHR empty

cpu0_L2C_tags empty

cpu0_L2C_translation empty

cpu0_L2C_RQ empty

cpu0_L2C_WQ empty

cpu0_L2C_PQ empty

cpu0_L2C_RQ empty

cpu0_L2C_WQ empty

cpu0_L2C_PQ empty

cpu0_L1I_MSHR empty

cpu0_L1I_tags empty

cpu0_L1I_translation empty

cpu0_L1I_RQ empty

cpu0_L1I_WQ empty

cpu0_L1I_PQ empty

cpu0_L1D_MSHR empty

cpu0_L1D_tags empty

cpu0_L1D_translation empty

cpu0_L1D_RQ empty

cpu0_L1D_WQ empty

cpu0_L1D_PQ empty

cpu0_L1D_RQ empty

cpu0_L1D_WQ empty

cpu0_L1D_PQ empty

cpu0_ITLB_MSHR empty

cpu0_ITLB_tags empty

cpu0_ITLB_translation empty

cpu0_ITLB_RQ empty

cpu0_ITLB_WQ empty

cpu0_ITLB_PQ empty

cpu0_DTLB_MSHR empty

cpu0_DTLB_tags empty

cpu0_DTLB_translation empty

cpu0_DTLB_RQ empty

cpu0_DTLB_WQ empty

cpu0_DTLB_PQ empty

LLC_MSHR empty

LLC_tags empty

LLC_translation empty

LLC_RQ empty

LLC_WQ empty

LLC_PQ empty

cpu0_PTW_MSHR empty

DRAM Channel 0
[RQ] entry:   0 empty
[RQ] entry:   1 empty
[RQ] entry:   2 empty
[RQ] entry:   3 empty
[RQ] entry:   4 empty
[RQ] entry:   5 empty
[RQ] entry:   6 empty
[RQ] entry:   7 empty
[RQ] entry:   8 empty
[RQ] entry:   9 empty
[RQ] entry:  10 empty
[RQ] entry:  11 empty
[RQ] entry:  12 empty
[RQ] entry:  13 empty
[RQ] entry:  14 empty
[RQ] entry:  15 empty
[RQ] entry:  16 empty
[RQ] entry:  17 empty
[RQ] entry:  18 empty
[RQ] entry:  19 empty
[RQ] entry:  20 empty
[RQ] entry:  21 empty
[RQ] entry:  22 empty
[RQ] entry:  23 empty
[RQ] entry:  24 empty
[RQ] entry:  25 empty
[RQ] entry:  26 empty
[RQ] entry:  27 empty
[RQ] entry:  28 empty
[RQ] entry:  29 empty
[RQ] entry:  30 empty
[RQ] entry:  31 empty
[RQ] entry:  32 empty
[RQ] entry:  33 empty
[RQ] entry:  34 empty
[RQ] entry:  35 empty
[RQ] entry:  36 empty
[RQ] entry:  37 empty
[RQ] entry:  38 empty
[RQ] entry:  39 empty
[RQ] entry:  40 empty
[RQ] entry:  41 empty
[RQ] entry:  42 empty
[RQ] entry:  43 empty
[RQ] entry:  44 empty
[RQ] entry:  45 empty
[RQ] entry:  46 empty
[RQ] entry:  47 empty
[RQ] entry:  48 empty
[RQ] entry:  49 empty
[RQ] entry:  50 empty
[RQ] entry:  51 empty
[RQ] entry:  52 empty
[RQ] entry:  53 empty
[RQ] entry:  54 empty
[RQ] entry:  55 empty
[RQ] entry:  56 empty
[RQ] entry:  57 empty
[RQ] entry:  58 empty
[RQ] entry:  59 empty
[RQ] entry:  60 empty
[RQ] entry:  61 empty
[RQ] entry:  62 empty
[RQ] entry:  63 empty

[WQ] entry:   0 empty
[WQ] entry:   1 empty
[WQ] entry:   2 empty
[WQ] entry:   3 empty
[WQ] entry:   4 empty
[WQ] entry:   5 empty
[WQ] entry:   6 empty
[WQ] entry:   7 empty
[WQ] entry:   8 empty
[WQ] entry:   9 empty
[WQ] entry:  10 empty
[WQ] entry:  11 empty
[WQ] entry:  12 empty
[WQ] entry:  13 empty
[WQ] entry:  14 empty
[WQ] entry:  15 empty
[WQ] entry:  16 empty
[WQ] entry:  17 empty
[WQ] entry:  18 empty
[WQ] entry:  19 empty
[WQ] entry:  20 empty
[WQ] entry:  21 empty
[WQ] entry:  22 empty
[WQ] entry:  23 empty
[WQ] entry:  24 empty
[WQ] entry:  25 empty
[WQ] entry:  26 empty
[WQ] entry:  27 empty
[WQ] entry:  28 empty
[WQ] entry:  29 empty
[WQ] entry:  30 empty
[WQ] entry:  31 empty
[WQ] entry:  32 empty
[WQ] entry:  33 empty
[WQ] entry:  34 empty
[WQ] entry:  35 empty
[WQ] entry:  36 empty
[WQ] entry:  37 empty
[WQ] entry:  38 empty
[WQ] entry:  39 empty
[WQ] entry:  40 empty
[WQ] entry:  41 empty
[WQ] entry:  42 empty
[WQ] entry:  43 empty
[WQ] entry:  44 empty
[WQ] entry:  45 empty
[WQ] entry:  46 empty
[WQ] entry:  47 empty
[WQ] entry:  48 empty
[WQ] entry:  49 empty
[WQ] entry:  50 empty
