[VMEM] WARNING: physical memory size is smaller than virtual memory size.

*** ChampSim Multicore Out-of-Order Simulator ***
Warmup Instructions: 100000
Simulation Instructions: 100000
Number of CPUs: 1
Page size: 4096

Off-chip DRAM Size: 16 GiB Channels: 1 Width: 64-bit Data Rate: 3205 MT/s
[LVP] PREDICT instr_id: 544 ip: 0x7e7ad3daf672 predicted: 0xd3dc7ab0
[LVP] PREDICT instr_id: 571 ip: 0x7e7ad3daf672 predicted: 0xd3dc7ab0
[LVP] PREDICT instr_id: 592 ip: 0x7e7ad3daf5e1 predicted: 0xb6bd5608
[LVP] PREDICT instr_id: 595 ip: 0x7e7ad3daf5ed predicted: 0xd3dc7b20
[LVP] PREDICT instr_id: 705 ip: 0x7e7ad3dad214 predicted: 0xb6bd56b8
[LVP] PREDICT instr_id: 708 ip: 0x7e7ad3dad214 predicted: 0xb6bd56b8
[LVP] PREDICT instr_id: 711 ip: 0x7e7ad3dad214 predicted: 0xb6bd56b8
[LVP] PREDICT instr_id: 714 ip: 0x7e7ad3dad214 predicted: 0xb6bd56b8
[LVP] PREDICT instr_id: 717 ip: 0x7e7ad3dad214 predicted: 0xb6bd56b8
[LVP] PREDICT instr_id: 720 ip: 0x7e7ad3dad214 predicted: 0xb6bd56b8
[LVP] PREDICT instr_id: 723 ip: 0x7e7ad3dad214 predicted: 0xb6bd56b8
[LVP] PREDICT instr_id: 726 ip: 0x7e7ad3dad214 predicted: 0xb6bd56b8
[LVP] PREDICT instr_id: 729 ip: 0x7e7ad3dad214 predicted: 0xb6bd56b8
[LVP] PREDICT instr_id: 732 ip: 0x7e7ad3dad214 predicted: 0xb6bd56b8
[LVP] PREDICT instr_id: 735 ip: 0x7e7ad3dad214 predicted: 0xb6bd56b8
[LVP] PREDICT instr_id: 738 ip: 0x7e7ad3dad214 predicted: 0xb6bd56b8
[LVP] PREDICT instr_id: 741 ip: 0x7e7ad3dad214 predicted: 0xb6bd56b8
[LVP] PREDICT instr_id: 744 ip: 0x7e7ad3dad214 predicted: 0xb6bd56b8
[LVP] PREDICT instr_id: 747 ip: 0x7e7ad3dad214 predicted: 0xb6bd56b8
[LVP] PREDICT instr_id: 750 ip: 0x7e7ad3dad214 predicted: 0xb6bd56b8
[LVP] PREDICT instr_id: 753 ip: 0x7e7ad3dad214 predicted: 0xb6bd56b8
[LVP] PREDICT instr_id: 756 ip: 0x7e7ad3dad214 predicted: 0xb6bd56b8
[LVP] PREDICT instr_id: 759 ip: 0x7e7ad3dad214 predicted: 0xb6bd56b8
[LVP] PREDICT instr_id: 762 ip: 0x7e7ad3dad214 predicted: 0xb6bd56b8
[LVP] PREDICT instr_id: 765 ip: 0x7e7ad3dad214 predicted: 0xb6bd56b8
[LVP] PREDICT instr_id: 768 ip: 0x7e7ad3dad214 predicted: 0xb6bd56b8
[LVP] PREDICT instr_id: 771 ip: 0x7e7ad3dad214 predicted: 0xb6bd56b8
[LVP] PREDICT instr_id: 774 ip: 0x7e7ad3dad214 predicted: 0xb6bd56b8
[LVP] PREDICT instr_id: 777 ip: 0x7e7ad3dad214 predicted: 0xb6bd56b8
[LVP] PREDICT instr_id: 780 ip: 0x7e7ad3dad214 predicted: 0xb6bd56b8
[LVP] PREDICT instr_id: 783 ip: 0x7e7ad3dad214 predicted: 0xb6bd56b8
[LVP] PREDICT instr_id: 786 ip: 0x7e7ad3dad214 predicted: 0xb6bd56b8
[LVP] PREDICT instr_id: 789 ip: 0x7e7ad3dad214 predicted: 0xb6bd56b8
[LVP] PREDICT instr_id: 792 ip: 0x7e7ad3dad214 predicted: 0xb6bd56b8
[LVP] PREDICT instr_id: 795 ip: 0x7e7ad3dad214 predicted: 0xb6bd56f8
[LVP] PREDICT instr_id: 798 ip: 0x7e7ad3dad214 predicted: 0xb6bd5718
[LVP] PREDICT instr_id: 801 ip: 0x7e7ad3dad214 predicted: 0xb6bd5718
[LVP] PREDICT instr_id: 804 ip: 0x7e7ad3dad214 predicted: 0xb6bd5778
[LVP] PREDICT instr_id: 807 ip: 0x7e7ad3dad214 predicted: 0xb6bd5778
[LVP] PREDICT instr_id: 810 ip: 0x7e7ad3dad214 predicted: 0xb6bd5778
[LVP] PREDICT instr_id: 813 ip: 0x7e7ad3dad214 predicted: 0xb6bd5778
[LVP] PREDICT instr_id: 946 ip: 0x7e7ad3dad27a predicted: 0xb6bd57f8
[LVP] PREDICT instr_id: 954 ip: 0x7e7ad3dad27a predicted: 0xb6bd57f8
[LVP] PREDICT instr_id: 962 ip: 0x7e7ad3dad27a predicted: 0xb6bd57f8
[LVP] PREDICT instr_id: 970 ip: 0x7e7ad3dad27a predicted: 0xb6bd57f8
[LVP] PREDICT instr_id: 978 ip: 0x7e7ad3dad27a predicted: 0xb6bd57f8
[LVP] PREDICT instr_id: 986 ip: 0x7e7ad3dad27a predicted: 0xb6bd57f8
[LVP] PREDICT instr_id: 994 ip: 0x7e7ad3dad27a predicted: 0xb6bd57f8
[LVP] PREDICT instr_id: 1002 ip: 0x7e7ad3dad27a predicted: 0xb6bd57f8
[LVP] PREDICT instr_id: 1010 ip: 0x7e7ad3dad27a predicted: 0xb6bd57f8
[LVP] PREDICT instr_id: 1018 ip: 0x7e7ad3dad27a predicted: 0xb6bd57f8
[LVP] PREDICT instr_id: 1026 ip: 0x7e7ad3dad27a predicted: 0xb6bd57f8
[LVP] PREDICT instr_id: 1034 ip: 0x7e7ad3dad27a predicted: 0xb6bd57f8
[LVP] PREDICT instr_id: 1042 ip: 0x7e7ad3dad27a predicted: 0xb6bd57f8
[LVP] PREDICT instr_id: 1050 ip: 0x7e7ad3dad27a predicted: 0xb6bd57f8
[LVP] PREDICT instr_id: 997 ip: 0x7e7ad3dad28a predicted: 0xb6bd5830
[LVP] PREDICT instr_id: 989 ip: 0x7e7ad3dad28a predicted: 0xb6bd5830
[LVP] PREDICT instr_id: 1005 ip: 0x7e7ad3dad28a predicted: 0xb6bd5830
[LVP] PREDICT instr_id: 1013 ip: 0x7e7ad3dad28a predicted: 0xb6bd5830
[LVP] PREDICT instr_id: 1021 ip: 0x7e7ad3dad28a predicted: 0xb6bd5830
[LVP] PREDICT instr_id: 1029 ip: 0x7e7ad3dad28a predicted: 0xb6bd5830
[LVP] PREDICT instr_id: 1037 ip: 0x7e7ad3dad28a predicted: 0xb6bd5830
[LVP] PREDICT instr_id: 1045 ip: 0x7e7ad3dad28a predicted: 0xb6bd5830
[LVP] PREDICT instr_id: 1053 ip: 0x7e7ad3dad28a predicted: 0xb6bd5830
[LVP] PREDICT instr_id: 1197 ip: 0x7e7ad3da4993 predicted: 0xd3dc54a8
[LVP] PREDICT instr_id: 1200 ip: 0x7e7ad3da499d predicted: 0xd3dc54a9
[LVP] PREDICT instr_id: 1208 ip: 0x7e7ad3da4993 predicted: 0xd3dc54a8
[LVP] PREDICT instr_id: 1211 ip: 0x7e7ad3da499d predicted: 0xd3dc54a9
[LVP] PREDICT instr_id: 1219 ip: 0x7e7ad3da4993 predicted: 0xd3dc54a8
[LVP] PREDICT instr_id: 1222 ip: 0x7e7ad3da499d predicted: 0xd3dc54a9
[LVP] PREDICT instr_id: 1230 ip: 0x7e7ad3da4993 predicted: 0xd3dc54a8
[LVP] PREDICT instr_id: 1233 ip: 0x7e7ad3da499d predicted: 0xd3dc54a9
[LVP] PREDICT instr_id: 1241 ip: 0x7e7ad3da4993 predicted: 0xd3dc5530
[LVP] PREDICT instr_id: 1244 ip: 0x7e7ad3da499d predicted: 0xd3dc5531
[LVP] PREDICT instr_id: 1252 ip: 0x7e7ad3da4993 predicted: 0xd3dc5530
[LVP] PREDICT instr_id: 1255 ip: 0x7e7ad3da499d predicted: 0xd3dc5531
[LVP] PREDICT instr_id: 1263 ip: 0x7e7ad3da4993 predicted: 0xd3dc55b8
[LVP] PREDICT instr_id: 1266 ip: 0x7e7ad3da499d predicted: 0xd3dc55b9
[LVP] PREDICT instr_id: 1274 ip: 0x7e7ad3da4993 predicted: 0xd3dc55b8
[LVP] PREDICT instr_id: 1277 ip: 0x7e7ad3da499d predicted: 0xd3dc5641
[LVP] PREDICT instr_id: 1285 ip: 0x7e7ad3da4993 predicted: 0xd3dc56c8
[LVP] PREDICT instr_id: 1288 ip: 0x7e7ad3da499d predicted: 0xd3dc56c9
[LVP] PREDICT instr_id: 1296 ip: 0x7e7ad3da4993 predicted: 0xd3dc56c8
[LVP] PREDICT instr_id: 1299 ip: 0x7e7ad3da499d predicted: 0xd3dc56c9
[LVP] PREDICT instr_id: 1307 ip: 0x7e7ad3da4993 predicted: 0xd3dc5750
[LVP] PREDICT instr_id: 1310 ip: 0x7e7ad3da499d predicted: 0xd3dc57d9
[LVP] PREDICT instr_id: 1322 ip: 0x7e7ad3da4993 predicted: 0xd3dc57d8
[LVP] PREDICT instr_id: 1325 ip: 0x7e7ad3da499d predicted: 0xd3dc5861
[LVP] PREDICT instr_id: 1337 ip: 0x7e7ad3da4993 predicted: 0xd3dc58e8
[LVP] PREDICT instr_id: 1340 ip: 0x7e7ad3da499d predicted: 0xd3dc58e9
[LVP] PREDICT instr_id: 1352 ip: 0x7e7ad3da4993 predicted: 0xd3dc5970
[LVP] PREDICT instr_id: 1355 ip: 0x7e7ad3da499d predicted: 0xd3dc5971
[LVP] PREDICT instr_id: 1363 ip: 0x7e7ad3da4993 predicted: 0xd3dc5970
[LVP] PREDICT instr_id: 1366 ip: 0x7e7ad3da499d predicted: 0xd3dc5971
[LVP] PREDICT instr_id: 1374 ip: 0x7e7ad3da4993 predicted: 0xd3dc5970
[LVP] PREDICT instr_id: 1377 ip: 0x7e7ad3da499d predicted: 0xd3dc59f9
[LVP] PREDICT instr_id: 1385 ip: 0x7e7ad3da4993 predicted: 0xd3dc5a80
[LVP] PREDICT instr_id: 1388 ip: 0x7e7ad3da499d predicted: 0xd3dc5a81
[LVP] PREDICT instr_id: 1396 ip: 0x7e7ad3da4993 predicted: 0xd3dc5a80
[LVP] PREDICT instr_id: 1399 ip: 0x7e7ad3da499d predicted: 0xd3dc5a81
[LVP] PREDICT instr_id: 1411 ip: 0x7e7ad3da4993 predicted: 0xd3dc5b90
[LVP] PREDICT instr_id: 1414 ip: 0x7e7ad3da499d predicted: 0xd3dc5b91
[LVP] PREDICT instr_id: 1422 ip: 0x7e7ad3da4993 predicted: 0xd3dc5b90
[LVP] PREDICT instr_id: 1425 ip: 0x7e7ad3da499d predicted: 0xd3dc5b91
[LVP] PREDICT instr_id: 1433 ip: 0x7e7ad3da4993 predicted: 0xd3dc5b90
[LVP] PREDICT instr_id: 1436 ip: 0x7e7ad3da499d predicted: 0xd3dc5c19
[LVP] PREDICT instr_id: 1444 ip: 0x7e7ad3da4993 predicted: 0xd3dc5c18
[LVP] PREDICT instr_id: 1447 ip: 0x7e7ad3da499d predicted: 0xd3dc5c19
[LVP] PREDICT instr_id: 1459 ip: 0x7e7ad3da4993 predicted: 0xd3dc5ca0
[LVP] PREDICT instr_id: 1462 ip: 0x7e7ad3da499d predicted: 0xd3dc5d29
[LVP] PREDICT instr_id: 1470 ip: 0x7e7ad3da4993 predicted: 0xd3dc6168
[LVP] PREDICT instr_id: 1473 ip: 0x7e7ad3da499d predicted: 0xd3dc6169
[LVP] PREDICT instr_id: 1481 ip: 0x7e7ad3da4993 predicted: 0xd3dc6168
[LVP] PREDICT instr_id: 1484 ip: 0x7e7ad3da499d predicted: 0xd3dc6169
[LVP] PREDICT instr_id: 1489 ip: 0x7e7ad3da49b0 predicted: 0xb6bd68fb
[LVP] PREDICT instr_id: 1496 ip: 0x7e7ad3da4993 predicted: 0xd3dc6168
[LVP] PREDICT instr_id: 1499 ip: 0x7e7ad3da499d predicted: 0xd3dc6169
[LVP] PREDICT instr_id: 1507 ip: 0x7e7ad3da4993 predicted: 0xd3dc61f0
[LVP] PREDICT instr_id: 1510 ip: 0x7e7ad3da499d predicted: 0xd3dc61f1
[LVP] PREDICT instr_id: 1518 ip: 0x7e7ad3da4993 predicted: 0xd3dc6278
[LVP] PREDICT instr_id: 1521 ip: 0x7e7ad3da499d predicted: 0xd3dc6279
[LVP] PREDICT instr_id: 1529 ip: 0x7e7ad3da4993 predicted: 0xd3dc6278
[LVP] PREDICT instr_id: 1532 ip: 0x7e7ad3da499d predicted: 0xd3dc6279
[LVP] PREDICT instr_id: 1540 ip: 0x7e7ad3da4993 predicted: 0xd3dc6278
[LVP] PREDICT instr_id: 1543 ip: 0x7e7ad3da499d predicted: 0xd3dc6301
[LVP] PREDICT instr_id: 1548 ip: 0x7e7ad3da49b0 predicted: 0xb6bd68fb
[LVP] PREDICT instr_id: 1555 ip: 0x7e7ad3da4993 predicted: 0xd3dc6388
[LVP] PREDICT instr_id: 1558 ip: 0x7e7ad3da499d predicted: 0xd3dc6389
[LVP] PREDICT instr_id: 1566 ip: 0x7e7ad3da4993 predicted: 0xd3dc6388
[LVP] PREDICT instr_id: 1569 ip: 0x7e7ad3da499d predicted: 0xd3dc6411
[LVP] PREDICT instr_id: 1574 ip: 0x7e7ad3da49b0 predicted: 0xb6bd68fb
[LVP] PREDICT instr_id: 1581 ip: 0x7e7ad3da4993 predicted: 0xd3dc6498
[LVP] PREDICT instr_id: 1584 ip: 0x7e7ad3da499d predicted: 0xd3dc6499
[LVP] PREDICT instr_id: 1592 ip: 0x7e7ad3da4993 predicted: 0xd3dc6520
[LVP] PREDICT instr_id: 1595 ip: 0x7e7ad3da499d predicted: 0xd3dc6521
[LVP] PREDICT instr_id: 1603 ip: 0x7e7ad3da4993 predicted: 0xd3dc6520
[LVP] PREDICT instr_id: 1606 ip: 0x7e7ad3da499d predicted: 0xd3dc6521
[LVP] PREDICT instr_id: 1614 ip: 0x7e7ad3da4993 predicted: 0xd3dc6520
[LVP] PREDICT instr_id: 1617 ip: 0x7e7ad3da499d predicted: 0xd3dc65a9
[LVP] PREDICT instr_id: 1625 ip: 0x7e7ad3da4993 predicted: 0xd3dc65a8
[LVP] PREDICT instr_id: 1628 ip: 0x7e7ad3da499d predicted: 0xd3dc6631
[LVP] PREDICT instr_id: 1633 ip: 0x7e7ad3da49b0 predicted: 0xb6bd68fb
[LVP] PREDICT instr_id: 1640 ip: 0x7e7ad3da4993 predicted: 0xd3dc6630
[LVP] PREDICT instr_id: 1643 ip: 0x7e7ad3da499d predicted: 0xd3dc66b9
[LVP] PREDICT instr_id: 1651 ip: 0x7e7ad3da4993 predicted: 0xd3dc66b8
[LVP] PREDICT instr_id: 1654 ip: 0x7e7ad3da499d predicted: 0xd3dc66b9
[LVP] PREDICT instr_id: 1664 ip: 0x7e7ad3da48f9 predicted: 0xb6bd5698
[LVP] PREDICT instr_id: 1667 ip: 0x7e7ad3da4905 predicted: 0xb6bd68fb
[LVP] PREDICT instr_id: 1675 ip: 0x7e7ad3da4920 predicted: 0xb6bd6900
[LVP] PREDICT instr_id: 1682 ip: 0x7e7ad3da4920 predicted: 0xb6bd6900
[LVP] PREDICT instr_id: 1689 ip: 0x7e7ad3da4920 predicted: 0xb6bd6900
[LVP] PREDICT instr_id: 1696 ip: 0x7e7ad3da4920 predicted: 0xb6bd6900
[LVP] PREDICT instr_id: 1703 ip: 0x7e7ad3da4920 predicted: 0xb6bd6900
[LVP] PREDICT instr_id: 1710 ip: 0x7e7ad3da4920 predicted: 0xb6bd6900
[LVP] PREDICT instr_id: 1717 ip: 0x7e7ad3da4920 predicted: 0xb6bd6900
[LVP] PREDICT instr_id: 1724 ip: 0x7e7ad3da4920 predicted: 0xb6bd6900
[LVP] PREDICT instr_id: 1731 ip: 0x7e7ad3da4920 predicted: 0xb6bd6900
[LVP] PREDICT instr_id: 1745 ip: 0x7e7ad3da4968 predicted: 0xb6bd68fb
[LVP] PREDICT instr_id: 1751 ip: 0x7e7ad3da4993 predicted: 0xd3dc69e8
[LVP] PREDICT instr_id: 1754 ip: 0x7e7ad3da499d predicted: 0xd3dc69e9
[LVP] PREDICT instr_id: 1762 ip: 0x7e7ad3da4993 predicted: 0xd3dc69e8
[LVP] PREDICT instr_id: 1765 ip: 0x7e7ad3da499d predicted: 0xd3dc69e9
[LVP] PREDICT instr_id: 1770 ip: 0x7e7ad3da49b0 predicted: 0xb6bd68fb
[LVP] PREDICT instr_id: 1777 ip: 0x7e7ad3da4993 predicted: 0xd3dc69e8
[LVP] PREDICT instr_id: 1780 ip: 0x7e7ad3da499d predicted: 0xd3dc69e9
[LVP] PREDICT instr_id: 1788 ip: 0x7e7ad3da4993 predicted: 0xd3dc69e8
[LVP] PREDICT instr_id: 1791 ip: 0x7e7ad3da499d predicted: 0xd3dc69e9
[LVP] PREDICT instr_id: 1799 ip: 0x7e7ad3da4993 predicted: 0xd3dc69e8
[LVP] PREDICT instr_id: 1802 ip: 0x7e7ad3da499d predicted: 0xd3dc69e9
[LVP] PREDICT instr_id: 1810 ip: 0x7e7ad3da4993 predicted: 0xd3dc69e8
[LVP] PREDICT instr_id: 1813 ip: 0x7e7ad3da499d predicted: 0xd3dc69e9
[LVP] PREDICT instr_id: 1821 ip: 0x7e7ad3da4993 predicted: 0xd3dc69e8
[LVP] PREDICT instr_id: 1824 ip: 0x7e7ad3da499d predicted: 0xd3dc69e9
[LVP] PREDICT instr_id: 1832 ip: 0x7e7ad3da4993 predicted: 0xd3dc69e8
[LVP] PREDICT instr_id: 1835 ip: 0x7e7ad3da499d predicted: 0xd3dc69e9
[LVP] PREDICT instr_id: 1843 ip: 0x7e7ad3da4993 predicted: 0xd3dc54a8
[LVP] PREDICT instr_id: 1846 ip: 0x7e7ad3da499d predicted: 0xd3dc54a9
[LVP] PREDICT instr_id: 1854 ip: 0x7e7ad3da4993 predicted: 0xd3dc5530
[LVP] PREDICT instr_id: 1857 ip: 0x7e7ad3da499d predicted: 0xd3dc5531
[LVP] PREDICT instr_id: 1865 ip: 0x7e7ad3da4993 predicted: 0xd3dc5530
[LVP] PREDICT instr_id: 1868 ip: 0x7e7ad3da499d predicted: 0xd3dc5531
[LVP] PREDICT instr_id: 1876 ip: 0x7e7ad3da4993 predicted: 0xd3dc55b8
[LVP] PREDICT instr_id: 1879 ip: 0x7e7ad3da499d predicted: 0xd3dc55b9
[LVP] PREDICT instr_id: 1887 ip: 0x7e7ad3da4993 predicted: 0xd3dc5640
[LVP] PREDICT instr_id: 1890 ip: 0x7e7ad3da499d predicted: 0xd3dc5641
[LVP] PREDICT instr_id: 1895 ip: 0x7e7ad3da49b0 predicted: 0xb6bd690b
[LVP] PREDICT instr_id: 1902 ip: 0x7e7ad3da4993 predicted: 0xd3dc56c8
[LVP] PREDICT instr_id: 1905 ip: 0x7e7ad3da499d predicted: 0xd3dc56c9
[LVP] PREDICT instr_id: 1910 ip: 0x7e7ad3da49b0 predicted: 0xb6bd690b
[LVP] PREDICT instr_id: 1917 ip: 0x7e7ad3da4993 predicted: 0xd3dc5750
[LVP] PREDICT instr_id: 1920 ip: 0x7e7ad3da499d predicted: 0xd3dc5751
[LVP] PREDICT instr_id: 1925 ip: 0x7e7ad3da49b0 predicted: 0xb6bd690b
[LVP] PREDICT instr_id: 1932 ip: 0x7e7ad3da4993 predicted: 0xd3dc57d8
[LVP] PREDICT instr_id: 1935 ip: 0x7e7ad3da499d predicted: 0xd3dc57d9
[LVP] PREDICT instr_id: 1943 ip: 0x7e7ad3da4993 predicted: 0xd3dc5860
[LVP] PREDICT instr_id: 1946 ip: 0x7e7ad3da499d predicted: 0xd3dc5861
[LVP] PREDICT instr_id: 1954 ip: 0x7e7ad3da4993 predicted: 0xd3dc5860
[LVP] PREDICT instr_id: 1957 ip: 0x7e7ad3da499d predicted: 0xd3dc58e9
[LVP] PREDICT instr_id: 1965 ip: 0x7e7ad3da4993 predicted: 0xd3dc58e8
[LVP] PREDICT instr_id: 1968 ip: 0x7e7ad3da499d predicted: 0xd3dc5971
[LVP] PREDICT instr_id: 1976 ip: 0x7e7ad3da4993 predicted: 0xd3dc5970
[LVP] PREDICT instr_id: 1979 ip: 0x7e7ad3da499d predicted: 0xd3dc5971
[LVP] PREDICT instr_id: 1984 ip: 0x7e7ad3da49b0 predicted: 0xb6bd690b
[LVP] PREDICT instr_id: 1991 ip: 0x7e7ad3da4993 predicted: 0xd3dc59f8
[LVP] PREDICT instr_id: 1994 ip: 0x7e7ad3da499d predicted: 0xd3dc59f9
[LVP] PREDICT instr_id: 2002 ip: 0x7e7ad3da4993 predicted: 0xd3dc5a80
[LVP] PREDICT instr_id: 2005 ip: 0x7e7ad3da499d predicted: 0xd3dc5a81
[LVP] PREDICT instr_id: 2013 ip: 0x7e7ad3da4993 predicted: 0xd3dc5b08
[LVP] PREDICT instr_id: 2016 ip: 0x7e7ad3da499d predicted: 0xd3dc5b09
[LVP] PREDICT instr_id: 2024 ip: 0x7e7ad3da4993 predicted: 0xd3dc5b08
[LVP] PREDICT instr_id: 2027 ip: 0x7e7ad3da499d predicted: 0xd3dc5b91
[LVP] PREDICT instr_id: 2032 ip: 0x7e7ad3da49b0 predicted: 0xb6bd690b
[LVP] PREDICT instr_id: 2039 ip: 0x7e7ad3da4993 predicted: 0xd3dc5b90
[LVP] PREDICT instr_id: 2042 ip: 0x7e7ad3da499d predicted: 0xd3dc5b91
[LVP] PREDICT instr_id: 2050 ip: 0x7e7ad3da4993 predicted: 0xd3dc5c18
[LVP] PREDICT instr_id: 2053 ip: 0x7e7ad3da499d predicted: 0xd3dc5c19
[LVP] PREDICT instr_id: 2061 ip: 0x7e7ad3da4993 predicted: 0xd3dc5c18
[LVP] PREDICT instr_id: 2064 ip: 0x7e7ad3da499d predicted: 0xd3dc5c19
[LVP] PREDICT instr_id: 2069 ip: 0x7e7ad3da49b0 predicted: 0xb6bd690b
[LVP] PREDICT instr_id: 2076 ip: 0x7e7ad3da4993 predicted: 0xd3dc5ca0
[LVP] PREDICT instr_id: 2079 ip: 0x7e7ad3da499d predicted: 0xd3dc5ca1
[LVP] PREDICT instr_id: 2087 ip: 0x7e7ad3da4993 predicted: 0xd3dc5d28
[LVP] PREDICT instr_id: 2090 ip: 0x7e7ad3da499d predicted: 0xd3dc5d29
[LVP] PREDICT instr_id: 2098 ip: 0x7e7ad3da4993 predicted: 0xd3dc5db0
[LVP] PREDICT instr_id: 2101 ip: 0x7e7ad3da499d predicted: 0xd3dc5db1
[LVP] PREDICT instr_id: 2109 ip: 0x7e7ad3da4993 predicted: 0xd3dc5e38
[LVP] PREDICT instr_id: 2112 ip: 0x7e7ad3da499d predicted: 0xd3dc5e39
[LVP] PREDICT instr_id: 2120 ip: 0x7e7ad3da4993 predicted: 0xd3dc5e38
[LVP] PREDICT instr_id: 2123 ip: 0x7e7ad3da499d predicted: 0xd3dc5ec1
[LVP] PREDICT instr_id: 2128 ip: 0x7e7ad3da49b0 predicted: 0xb6bd690b
[LVP] PREDICT instr_id: 2135 ip: 0x7e7ad3da4993 predicted: 0xd3dc5ec0
[LVP] PREDICT instr_id: 2138 ip: 0x7e7ad3da499d predicted: 0xd3dc5ec1
[LVP] PREDICT instr_id: 2146 ip: 0x7e7ad3da4993 predicted: 0xd3dc5f48
[LVP] PREDICT instr_id: 2149 ip: 0x7e7ad3da499d predicted: 0xd3dc5f49
[LVP] PREDICT instr_id: 2154 ip: 0x7e7ad3da49b0 predicted: 0xb6bd690b
[LVP] PREDICT instr_id: 2161 ip: 0x7e7ad3da4993 predicted: 0xd3dc5fd0
[LVP] PREDICT instr_id: 2164 ip: 0x7e7ad3da499d predicted: 0xd3dc5fd1
[LVP] PREDICT instr_id: 2172 ip: 0x7e7ad3da4993 predicted: 0xd3dc6058
[LVP] PREDICT instr_id: 2175 ip: 0x7e7ad3da499d predicted: 0xd3dc6059
[LVP] PREDICT instr_id: 2183 ip: 0x7e7ad3da4993 predicted: 0xd3dc60e0
[LVP] PREDICT instr_id: 2186 ip: 0x7e7ad3da499d predicted: 0xd3dc60e1
[LVP] PREDICT instr_id: 2194 ip: 0x7e7ad3da4993 predicted: 0xd3dc60e0
[LVP] PREDICT instr_id: 2197 ip: 0x7e7ad3da499d predicted: 0xd3dc60e1
[LVP] PREDICT instr_id: 2205 ip: 0x7e7ad3da4993 predicted: 0xd3dc6168
[LVP] PREDICT instr_id: 2208 ip: 0x7e7ad3da499d predicted: 0xd3dc6169
[LVP] PREDICT instr_id: 2213 ip: 0x7e7ad3da49b0 predicted: 0xb6bd690b
[LVP] PREDICT instr_id: 2220 ip: 0x7e7ad3da4993 predicted: 0xd3dc61f0
[LVP] PREDICT instr_id: 2223 ip: 0x7e7ad3da499d predicted: 0xd3dc61f1
[LVP] PREDICT instr_id: 2231 ip: 0x7e7ad3da4993 predicted: 0xd3dc6278
[LVP] PREDICT instr_id: 2234 ip: 0x7e7ad3da499d predicted: 0xd3dc6279
[LVP] PREDICT instr_id: 2244 ip: 0x7e7ad3da48f9 predicted: 0xb6bd56a0
[LVP] PREDICT instr_id: 2247 ip: 0x7e7ad3da4905 predicted: 0xb6bd690b
[LVP] PREDICT instr_id: 2255 ip: 0x7e7ad3da4920 predicted: 0xb6bd6914
[LVP] PREDICT instr_id: 2262 ip: 0x7e7ad3da4920 predicted: 0xb6bd6914
[LVP] PREDICT instr_id: 2269 ip: 0x7e7ad3da4920 predicted: 0xb6bd6914
[LVP] PREDICT instr_id: 2276 ip: 0x7e7ad3da4920 predicted: 0xb6bd6914
[LVP] PREDICT instr_id: 2283 ip: 0x7e7ad3da4920 predicted: 0xb6bd6914
[LVP] PREDICT instr_id: 2290 ip: 0x7e7ad3da4920 predicted: 0xb6bd6914
[LVP] PREDICT instr_id: 2297 ip: 0x7e7ad3da4920 predicted: 0xb6bd6914
[LVP] PREDICT instr_id: 2304 ip: 0x7e7ad3da4920 predicted: 0xb6bd6914
[LVP] PREDICT instr_id: 2311 ip: 0x7e7ad3da4920 predicted: 0xb6bd6914
[LVP] PREDICT instr_id: 2318 ip: 0x7e7ad3da4920 predicted: 0xb6bd6914
[LVP] PREDICT instr_id: 2325 ip: 0x7e7ad3da4920 predicted: 0xb6bd6914
[LVP] PREDICT instr_id: 2332 ip: 0x7e7ad3da4920 predicted: 0xb6bd6914
[LVP] PREDICT instr_id: 2339 ip: 0x7e7ad3da4920 predicted: 0xb6bd6914
[LVP] PREDICT instr_id: 2346 ip: 0x7e7ad3da4920 predicted: 0xb6bd6914
[LVP] PREDICT instr_id: 2353 ip: 0x7e7ad3da4920 predicted: 0xb6bd6914
[LVP] PREDICT instr_id: 2360 ip: 0x7e7ad3da4920 predicted: 0xb6bd6914
[LVP] PREDICT instr_id: 2367 ip: 0x7e7ad3da4920 predicted: 0xb6bd6914
[LVP] PREDICT instr_id: 2374 ip: 0x7e7ad3da4920 predicted: 0xb6bd6914
[LVP] PREDICT instr_id: 2381 ip: 0x7e7ad3da4920 predicted: 0xb6bd6914
[LVP] PREDICT instr_id: 2388 ip: 0x7e7ad3da4920 predicted: 0xb6bd6914
[LVP] PREDICT instr_id: 2395 ip: 0x7e7ad3da4920 predicted: 0xb6bd6914
[LVP] PREDICT instr_id: 2409 ip: 0x7e7ad3da4968 predicted: 0xb6bd690b
[LVP] PREDICT instr_id: 2415 ip: 0x7e7ad3da4993 predicted: 0xd3dc68d8
[LVP] PREDICT instr_id: 2418 ip: 0x7e7ad3da499d predicted: 0xd3dc68d9
[LVP] PREDICT instr_id: 2426 ip: 0x7e7ad3da4993 predicted: 0xd3dc68d8
[LVP] PREDICT instr_id: 2429 ip: 0x7e7ad3da499d predicted: 0xd3dc6961
[LVP] PREDICT instr_id: 2434 ip: 0x7e7ad3da49b0 predicted: 0xb6bd690b
[LVP] PREDICT instr_id: 2441 ip: 0x7e7ad3da4993 predicted: 0xd3dc6960
[LVP] PREDICT instr_id: 2444 ip: 0x7e7ad3da499d predicted: 0xd3dc69e9
[LVP] PREDICT instr_id: 2452 ip: 0x7e7ad3da4993 predicted: 0xd3dc69e8
[LVP] PREDICT instr_id: 2455 ip: 0x7e7ad3da499d predicted: 0xd3dc69e9
[LVP] PREDICT instr_id: 2463 ip: 0x7e7ad3da4993 predicted: 0xd3dc69e8
[LVP] PREDICT instr_id: 2466 ip: 0x7e7ad3da499d predicted: 0xd3dc69e9
[LVP] PREDICT instr_id: 2474 ip: 0x7e7ad3da4993 predicted: 0xd3dc69e8
[LVP] PREDICT instr_id: 2477 ip: 0x7e7ad3da499d predicted: 0xd3dc69e9
[LVP] PREDICT instr_id: 2485 ip: 0x7e7ad3da4993 predicted: 0xd3dc69e8
[LVP] PREDICT instr_id: 2488 ip: 0x7e7ad3da499d predicted: 0xd3dc69e9
[LVP] PREDICT instr_id: 2496 ip: 0x7e7ad3da4993 predicted: 0xd3dc69e8
[LVP] PREDICT instr_id: 2499 ip: 0x7e7ad3da499d predicted: 0xd3dc69e9
[LVP] PREDICT instr_id: 2507 ip: 0x7e7ad3da4993 predicted: 0xd3dc69e8
[LVP] PREDICT instr_id: 2510 ip: 0x7e7ad3da499d predicted: 0xd3dc69e9
[LVP] PREDICT instr_id: 2518 ip: 0x7e7ad3da4993 predicted: 0xd3dc69e8
[LVP] PREDICT instr_id: 2521 ip: 0x7e7ad3da499d predicted: 0xd3dc69e9
[LVP] PREDICT instr_id: 2529 ip: 0x7e7ad3da4993 predicted: 0xd3dc69e8
[LVP] PREDICT instr_id: 2532 ip: 0x7e7ad3da499d predicted: 0xd3dc69e9
[LVP] PREDICT instr_id: 2540 ip: 0x7e7ad3da4993 predicted: 0xd3dc69e8
[LVP] PREDICT instr_id: 2543 ip: 0x7e7ad3da499d predicted: 0xd3dc69e9
[LVP] PREDICT instr_id: 2551 ip: 0x7e7ad3da4993 predicted: 0xd3dc69e8
[LVP] PREDICT instr_id: 2554 ip: 0x7e7ad3da499d predicted: 0xd3dc69e9
[LVP] PREDICT instr_id: 2559 ip: 0x7e7ad3da49b0 predicted: 0xb6bd690b
[LVP] PREDICT instr_id: 2566 ip: 0x7e7ad3da4993 predicted: 0xd3dc69e8
[LVP] PREDICT instr_id: 2569 ip: 0x7e7ad3da499d predicted: 0xd3dc69e9
[LVP] PREDICT instr_id: 2574 ip: 0x7e7ad3da49b0 predicted: 0xb6bd690b
[LVP] PREDICT instr_id: 2581 ip: 0x7e7ad3da4993 predicted: 0xd3dc69e8
[LVP] PREDICT instr_id: 2584 ip: 0x7e7ad3da499d predicted: 0xd3dc69e9
[LVP] PREDICT instr_id: 2589 ip: 0x7e7ad3da49b0 predicted: 0xb6bd690b
[LVP] PREDICT instr_id: 2596 ip: 0x7e7ad3da4993 predicted: 0xd3dc69e8
[LVP] PREDICT instr_id: 2599 ip: 0x7e7ad3da499d predicted: 0xd3dc69e9
[LVP] PREDICT instr_id: 2607 ip: 0x7e7ad3da4993 predicted: 0xd3dc69e8
[LVP] PREDICT instr_id: 2610 ip: 0x7e7ad3da499d predicted: 0xd3dc69e9
[LVP] PREDICT instr_id: 2618 ip: 0x7e7ad3da4993 predicted: 0xd3dc69e8
[LVP] PREDICT instr_id: 2621 ip: 0x7e7ad3da499d predicted: 0xd3dc69e9
[LVP] PREDICT instr_id: 2629 ip: 0x7e7ad3da4993 predicted: 0xd3dc69e8
[LVP] PREDICT instr_id: 2632 ip: 0x7e7ad3da499d predicted: 0xd3dc69e9
[LVP] PREDICT instr_id: 2640 ip: 0x7e7ad3da4993 predicted: 0xd3dc69e8
[LVP] PREDICT instr_id: 2643 ip: 0x7e7ad3da499d predicted: 0xd3dc69e9
[LVP] PREDICT instr_id: 2648 ip: 0x7e7ad3da49b0 predicted: 0xb6bd690b
[LVP] PREDICT instr_id: 2655 ip: 0x7e7ad3da4993 predicted: 0xd3dc69e8
[LVP] PREDICT instr_id: 2658 ip: 0x7e7ad3da499d predicted: 0xd3dc69e9
[LVP] PREDICT instr_id: 2666 ip: 0x7e7ad3da4993 predicted: 0xd3dc69e8
[LVP] PREDICT instr_id: 2669 ip: 0x7e7ad3da499d predicted: 0xd3dc69e9
[LVP] PREDICT instr_id: 2677 ip: 0x7e7ad3da4993 predicted: 0xd3dc54a8
[LVP] PREDICT instr_id: 2680 ip: 0x7e7ad3da499d predicted: 0xd3dc54a9
[LVP] PREDICT instr_id: 2688 ip: 0x7e7ad3da4993 predicted: 0xd3dc5530
[LVP] PREDICT instr_id: 2691 ip: 0x7e7ad3da499d predicted: 0xd3dc5531
[LVP] PREDICT instr_id: 2696 ip: 0x7e7ad3da49b0 predicted: 0xb6bd691f
[LVP] PREDICT instr_id: 2703 ip: 0x7e7ad3da4993 predicted: 0xd3dc55b8
[LVP] PREDICT instr_id: 2706 ip: 0x7e7ad3da499d predicted: 0xd3dc55b9
[LVP] PREDICT instr_id: 2714 ip: 0x7e7ad3da4993 predicted: 0xd3dc55b8
[LVP] PREDICT instr_id: 2717 ip: 0x7e7ad3da499d predicted: 0xd3dc5641
[LVP] PREDICT instr_id: 2725 ip: 0x7e7ad3da4993 predicted: 0xd3dc5640
[LVP] PREDICT instr_id: 2728 ip: 0x7e7ad3da499d predicted: 0xd3dc5641
[LVP] PREDICT instr_id: 2733 ip: 0x7e7ad3da49b0 predicted: 0xb6bd691f
[LVP] PREDICT instr_id: 2740 ip: 0x7e7ad3da4993 predicted: 0xd3dc56c8
[LVP] PREDICT instr_id: 2743 ip: 0x7e7ad3da499d predicted: 0xd3dc5751
[LVP] PREDICT instr_id: 2751 ip: 0x7e7ad3da4993 predicted: 0xd3dc5750
[LVP] PREDICT instr_id: 2754 ip: 0x7e7ad3da499d predicted: 0xd3dc5751
[LVP] PREDICT instr_id: 2762 ip: 0x7e7ad3da4993 predicted: 0xd3dc57d8
[LVP] PREDICT instr_id: 2765 ip: 0x7e7ad3da499d predicted: 0xd3dc57d9
[LVP] PREDICT instr_id: 2773 ip: 0x7e7ad3da4993 predicted: 0xd3dc5860
[LVP] PREDICT instr_id: 2776 ip: 0x7e7ad3da499d predicted: 0xd3dc5861
[LVP] PREDICT instr_id: 2784 ip: 0x7e7ad3da4993 predicted: 0xd3dc5860
[LVP] PREDICT instr_id: 2787 ip: 0x7e7ad3da499d predicted: 0xd3dc58e9
[LVP] PREDICT instr_id: 2792 ip: 0x7e7ad3da49b0 predicted: 0xb6bd691f
[LVP] PREDICT instr_id: 2799 ip: 0x7e7ad3da4993 predicted: 0xd3dc5970
[LVP] PREDICT instr_id: 2802 ip: 0x7e7ad3da499d predicted: 0xd3dc5971
[LVP] PREDICT instr_id: 2810 ip: 0x7e7ad3da4993 predicted: 0xd3dc5970
[LVP] PREDICT instr_id: 2813 ip: 0x7e7ad3da499d predicted: 0xd3dc59f9
[LVP] PREDICT instr_id: 2818 ip: 0x7e7ad3da49b0 predicted: 0xb6bd691f
[LVP] PREDICT instr_id: 2825 ip: 0x7e7ad3da4993 predicted: 0xd3dc59f8
[LVP] PREDICT instr_id: 2828 ip: 0x7e7ad3da499d predicted: 0xd3dc5a81
[LVP] PREDICT instr_id: 2836 ip: 0x7e7ad3da4993 predicted: 0xd3dc5a80
[LVP] PREDICT instr_id: 2839 ip: 0x7e7ad3da499d predicted: 0xd3dc5a81
[LVP] PREDICT instr_id: 2847 ip: 0x7e7ad3da4993 predicted: 0xd3dc5b08
[LVP] PREDICT instr_id: 2850 ip: 0x7e7ad3da499d predicted: 0xd3dc5b09
[LVP] PREDICT instr_id: 2858 ip: 0x7e7ad3da4993 predicted: 0xd3dc5b90
[LVP] PREDICT instr_id: 2861 ip: 0x7e7ad3da499d predicted: 0xd3dc5b91
[LVP] PREDICT instr_id: 2869 ip: 0x7e7ad3da4993 predicted: 0xd3dc5b90
[LVP] PREDICT instr_id: 2872 ip: 0x7e7ad3da499d predicted: 0xd3dc5b91
[LVP] PREDICT instr_id: 2877 ip: 0x7e7ad3da49b0 predicted: 0xb6bd691f
[LVP] PREDICT instr_id: 2884 ip: 0x7e7ad3da4993 predicted: 0xd3dc5c18
[LVP] PREDICT instr_id: 2887 ip: 0x7e7ad3da499d predicted: 0xd3dc5c19
[LVP] PREDICT instr_id: 2895 ip: 0x7e7ad3da4993 predicted: 0xd3dc5c18
[LVP] PREDICT instr_id: 2898 ip: 0x7e7ad3da499d predicted: 0xd3dc5ca1
[LVP] PREDICT instr_id: 2908 ip: 0x7e7ad3da48f9 predicted: 0xb6bd56a8
[LVP] PREDICT instr_id: 2911 ip: 0x7e7ad3da4905 predicted: 0xb6bd691f
[LVP] PREDICT instr_id: 2919 ip: 0x7e7ad3da4920 predicted: 0xb6bd6934
[LVP] PREDICT instr_id: 2926 ip: 0x7e7ad3da4920 predicted: 0xb6bd6934
[LVP] PREDICT instr_id: 2933 ip: 0x7e7ad3da4920 predicted: 0xb6bd6934
[LVP] PREDICT instr_id: 2940 ip: 0x7e7ad3da4920 predicted: 0xb6bd6934
[LVP] PREDICT instr_id: 2947 ip: 0x7e7ad3da4920 predicted: 0xb6bd6934
[LVP] PREDICT instr_id: 2954 ip: 0x7e7ad3da4920 predicted: 0xb6bd6934
[LVP] PREDICT instr_id: 2961 ip: 0x7e7ad3da4920 predicted: 0xb6bd6934
[LVP] PREDICT instr_id: 2968 ip: 0x7e7ad3da4920 predicted: 0xb6bd6934
[LVP] PREDICT instr_id: 2975 ip: 0x7e7ad3da4920 predicted: 0xb6bd6934
[LVP] PREDICT instr_id: 2982 ip: 0x7e7ad3da4920 predicted: 0xb6bd6934
[LVP] PREDICT instr_id: 2989 ip: 0x7e7ad3da4920 predicted: 0xb6bd6934
[LVP] PREDICT instr_id: 2996 ip: 0x7e7ad3da4920 predicted: 0xb6bd6934
[LVP] PREDICT instr_id: 3003 ip: 0x7e7ad3da4920 predicted: 0xb6bd6934
[LVP] PREDICT instr_id: 3010 ip: 0x7e7ad3da4920 predicted: 0xb6bd6934
[LVP] PREDICT instr_id: 3017 ip: 0x7e7ad3da4920 predicted: 0xb6bd6934
[LVP] PREDICT instr_id: 3024 ip: 0x7e7ad3da4920 predicted: 0xb6bd6934
[LVP] PREDICT instr_id: 3031 ip: 0x7e7ad3da4920 predicted: 0xb6bd6934
[LVP] PREDICT instr_id: 3038 ip: 0x7e7ad3da4920 predicted: 0xb6bd6934
[LVP] PREDICT instr_id: 3045 ip: 0x7e7ad3da4920 predicted: 0xb6bd6934
[LVP] PREDICT instr_id: 3052 ip: 0x7e7ad3da4920 predicted: 0xb6bd6934
[LVP] PREDICT instr_id: 3066 ip: 0x7e7ad3da4968 predicted: 0xb6bd691f
[LVP] PREDICT instr_id: 3072 ip: 0x7e7ad3da4993 predicted: 0xd3dc6278
[LVP] PREDICT instr_id: 3075 ip: 0x7e7ad3da499d predicted: 0xd3dc6279
[LVP] PREDICT instr_id: 3083 ip: 0x7e7ad3da4993 predicted: 0xd3dc6300
[LVP] PREDICT instr_id: 3086 ip: 0x7e7ad3da499d predicted: 0xd3dc6301
[LVP] PREDICT instr_id: 3091 ip: 0x7e7ad3da49b0 predicted: 0xb6bd691f
[LVP] PREDICT instr_id: 3098 ip: 0x7e7ad3da4993 predicted: 0xd3dc6388
[LVP] PREDICT instr_id: 3101 ip: 0x7e7ad3da499d predicted: 0xd3dc6389
[LVP] PREDICT instr_id: 3109 ip: 0x7e7ad3da4993 predicted: 0xd3dc6410
[LVP] PREDICT instr_id: 3112 ip: 0x7e7ad3da499d predicted: 0xd3dc6411
[LVP] PREDICT instr_id: 3120 ip: 0x7e7ad3da4993 predicted: 0xd3dc6498
[LVP] PREDICT instr_id: 3123 ip: 0x7e7ad3da499d predicted: 0xd3dc6499
[LVP] PREDICT instr_id: 3131 ip: 0x7e7ad3da4993 predicted: 0xd3dc6520
[LVP] PREDICT instr_id: 3134 ip: 0x7e7ad3da499d predicted: 0xd3dc6521
[LVP] PREDICT instr_id: 3142 ip: 0x7e7ad3da4993 predicted: 0xd3dc65a8
[LVP] PREDICT instr_id: 3145 ip: 0x7e7ad3da499d predicted: 0xd3dc65a9
[LVP] PREDICT instr_id: 3153 ip: 0x7e7ad3da4993 predicted: 0xd3dc6630
[LVP] PREDICT instr_id: 3156 ip: 0x7e7ad3da499d predicted: 0xd3dc6631
[LVP] PREDICT instr_id: 3164 ip: 0x7e7ad3da4993 predicted: 0xd3dc6630
[LVP] PREDICT instr_id: 3167 ip: 0x7e7ad3da499d predicted: 0xd3dc66b9
[LVP] PREDICT instr_id: 3175 ip: 0x7e7ad3da4993 predicted: 0xd3dc66b8
[LVP] PREDICT instr_id: 3178 ip: 0x7e7ad3da499d predicted: 0xd3dc6741
[LVP] PREDICT instr_id: 3186 ip: 0x7e7ad3da4993 predicted: 0xd3dc6740
[LVP] PREDICT instr_id: 3189 ip: 0x7e7ad3da499d predicted: 0xd3dc67c9
[LVP] PREDICT instr_id: 3197 ip: 0x7e7ad3da4993 predicted: 0xd3dc67c8
[LVP] PREDICT instr_id: 3200 ip: 0x7e7ad3da499d predicted: 0xd3dc6851
[LVP] PREDICT instr_id: 3208 ip: 0x7e7ad3da4993 predicted: 0xd3dc6850
[LVP] PREDICT instr_id: 3211 ip: 0x7e7ad3da499d predicted: 0xd3dc68d9
[LVP] PREDICT instr_id: 3216 ip: 0x7e7ad3da49b0 predicted: 0xb6bd691f
[LVP] PREDICT instr_id: 3223 ip: 0x7e7ad3da4993 predicted: 0xd3dc68d8
[LVP] PREDICT instr_id: 3226 ip: 0x7e7ad3da499d predicted: 0xd3dc6961
[LVP] PREDICT instr_id: 3231 ip: 0x7e7ad3da49b0 predicted: 0xb6bd691f
[LVP] PREDICT instr_id: 3238 ip: 0x7e7ad3da4993 predicted: 0xd3dc69e8
[LVP] PREDICT instr_id: 3241 ip: 0x7e7ad3da499d predicted: 0xd3dc69e9
[LVP] PREDICT instr_id: 3246 ip: 0x7e7ad3da49b0 predicted: 0xb6bd691f
[LVP] PREDICT instr_id: 3253 ip: 0x7e7ad3da4993 predicted: 0xd3dc69e8
[LVP] PREDICT instr_id: 3256 ip: 0x7e7ad3da499d predicted: 0xd3dc69e9
[LVP] PREDICT instr_id: 3264 ip: 0x7e7ad3da4993 predicted: 0xd3dc69e8
[LVP] PREDICT instr_id: 3267 ip: 0x7e7ad3da499d predicted: 0xd3dc69e9
[LVP] PREDICT instr_id: 3275 ip: 0x7e7ad3da4993 predicted: 0xd3dc69e8
[LVP] PREDICT instr_id: 3278 ip: 0x7e7ad3da499d predicted: 0xd3dc69e9
[LVP] PREDICT instr_id: 3286 ip: 0x7e7ad3da4993 predicted: 0xd3dc69e8
[LVP] PREDICT instr_id: 3289 ip: 0x7e7ad3da499d predicted: 0xd3dc69e9
[LVP] PREDICT instr_id: 3297 ip: 0x7e7ad3da4993 predicted: 0xd3dc69e8
[LVP] PREDICT instr_id: 3300 ip: 0x7e7ad3da499d predicted: 0xd3dc69e9
[LVP] PREDICT instr_id: 3305 ip: 0x7e7ad3da49b0 predicted: 0xb6bd691f
[LVP] PREDICT instr_id: 3312 ip: 0x7e7ad3da4993 predicted: 0xd3dc69e8
[LVP] PREDICT instr_id: 3315 ip: 0x7e7ad3da499d predicted: 0xd3dc69e9
[LVP] PREDICT instr_id: 3323 ip: 0x7e7ad3da4993 predicted: 0xd3dc69e8
[LVP] PREDICT instr_id: 3326 ip: 0x7e7ad3da499d predicted: 0xd3dc69e9
[LVP] PREDICT instr_id: 3334 ip: 0x7e7ad3da4993 predicted: 0xd3dc69e8
[LVP] PREDICT instr_id: 3337 ip: 0x7e7ad3da499d predicted: 0xd3dc69e9
[LVP] PREDICT instr_id: 3345 ip: 0x7e7ad3da4993 predicted: 0xd3dc69e8
[LVP] PREDICT instr_id: 3348 ip: 0x7e7ad3da499d predicted: 0xd3dc69e9
[LVP] PREDICT instr_id: 3353 ip: 0x7e7ad3da49b0 predicted: 0xb6bd691f
[LVP] PREDICT instr_id: 3360 ip: 0x7e7ad3da4993 predicted: 0xd3dc69e8
[LVP] PREDICT instr_id: 3363 ip: 0x7e7ad3da499d predicted: 0xd3dc69e9
[LVP] PREDICT instr_id: 3371 ip: 0x7e7ad3da4993 predicted: 0xd3dc69e8
[LVP] PREDICT instr_id: 3374 ip: 0x7e7ad3da499d predicted: 0xd3dc69e9
[LVP] PREDICT instr_id: 3382 ip: 0x7e7ad3da4993 predicted: 0xd3dc69e8
[LVP] PREDICT instr_id: 3385 ip: 0x7e7ad3da499d predicted: 0xd3dc69e9
[LVP] PREDICT instr_id: 3390 ip: 0x7e7ad3da49b0 predicted: 0xb6bd691f
[LVP] PREDICT instr_id: 3397 ip: 0x7e7ad3da4993 predicted: 0xd3dc69e8
[LVP] PREDICT instr_id: 3400 ip: 0x7e7ad3da499d predicted: 0xd3dc69e9
[LVP] PREDICT instr_id: 3408 ip: 0x7e7ad3da4993 predicted: 0xd3dc69e8
[LVP] PREDICT instr_id: 3411 ip: 0x7e7ad3da499d predicted: 0xd3dc69e9
[LVP] PREDICT instr_id: 3419 ip: 0x7e7ad3da4993 predicted: 0xd3dc54a8
[LVP] PREDICT instr_id: 3422 ip: 0x7e7ad3da499d predicted: 0xd3dc54a9
[LVP] PREDICT instr_id: 3430 ip: 0x7e7ad3da4993 predicted: 0xd3dc5530
[LVP] PREDICT instr_id: 3433 ip: 0x7e7ad3da499d predicted: 0xd3dc5531
[LVP] PREDICT instr_id: 3441 ip: 0x7e7ad3da4993 predicted: 0xd3dc55b8
[LVP] PREDICT instr_id: 3444 ip: 0x7e7ad3da499d predicted: 0xd3dc55b9
[LVP] PREDICT instr_id: 3449 ip: 0x7e7ad3da49b0 predicted: 0xb6bd6937
[LVP] PREDICT instr_id: 3456 ip: 0x7e7ad3da4993 predicted: 0xd3dc5640
[LVP] PREDICT instr_id: 3459 ip: 0x7e7ad3da499d predicted: 0xd3dc5641
[LVP] PREDICT instr_id: 3467 ip: 0x7e7ad3da4993 predicted: 0xd3dc56c8
[LVP] PREDICT instr_id: 3470 ip: 0x7e7ad3da499d predicted: 0xd3dc56c9
[LVP] PREDICT instr_id: 3475 ip: 0x7e7ad3da49b0 predicted: 0xb6bd6937
[LVP] PREDICT instr_id: 3482 ip: 0x7e7ad3da4993 predicted: 0xd3dc57d8
[LVP] PREDICT instr_id: 3485 ip: 0x7e7ad3da499d predicted: 0xd3dc57d9
[LVP] PREDICT instr_id: 3493 ip: 0x7e7ad3da4993 predicted: 0xd3dc5860
[LVP] PREDICT instr_id: 3496 ip: 0x7e7ad3da499d predicted: 0xd3dc5861
[LVP] PREDICT instr_id: 3504 ip: 0x7e7ad3da4993 predicted: 0xd3dc5860
[LVP] PREDICT instr_id: 3507 ip: 0x7e7ad3da499d predicted: 0xd3dc58e9
[LVP] PREDICT instr_id: 3515 ip: 0x7e7ad3da4993 predicted: 0xd3dc58e8
[LVP] PREDICT instr_id: 3518 ip: 0x7e7ad3da499d predicted: 0xd3dc5971
[LVP] PREDICT instr_id: 3526 ip: 0x7e7ad3da4993 predicted: 0xd3dc59f8
[LVP] PREDICT instr_id: 3529 ip: 0x7e7ad3da499d predicted: 0xd3dc59f9
[LVP] PREDICT instr_id: 3534 ip: 0x7e7ad3da49b0 predicted: 0xb6bd6937
[LVP] PREDICT instr_id: 3541 ip: 0x7e7ad3da4993 predicted: 0xd3dc5a80
[LVP] PREDICT instr_id: 3544 ip: 0x7e7ad3da499d predicted: 0xd3dc5a81
[LVP] PREDICT instr_id: 3552 ip: 0x7e7ad3da4993 predicted: 0xd3dc5b08
[LVP] PREDICT instr_id: 3555 ip: 0x7e7ad3da499d predicted: 0xd3dc5b09
[LVP] PREDICT instr_id: 3565 ip: 0x7e7ad3da48f9 predicted: 0xb6bd56b0
[LVP] PREDICT instr_id: 3568 ip: 0x7e7ad3da4905 predicted: 0xb6bd6937
[LVP] PREDICT instr_id: 3576 ip: 0x7e7ad3da4920 predicted: 0xb6bd694b
[LVP] PREDICT instr_id: 3583 ip: 0x7e7ad3da4920 predicted: 0xb6bd694b
[LVP] PREDICT instr_id: 3590 ip: 0x7e7ad3da4920 predicted: 0xb6bd694b
[LVP] PREDICT instr_id: 3597 ip: 0x7e7ad3da4920 predicted: 0xb6bd694b
[LVP] PREDICT instr_id: 3604 ip: 0x7e7ad3da4920 predicted: 0xb6bd694b
[LVP] PREDICT instr_id: 3611 ip: 0x7e7ad3da4920 predicted: 0xb6bd694b
[LVP] PREDICT instr_id: 3618 ip: 0x7e7ad3da4920 predicted: 0xb6bd694b
[LVP] PREDICT instr_id: 3625 ip: 0x7e7ad3da4920 predicted: 0xb6bd694b
[LVP] PREDICT instr_id: 3632 ip: 0x7e7ad3da4920 predicted: 0xb6bd694b
[LVP] PREDICT instr_id: 3639 ip: 0x7e7ad3da4920 predicted: 0xb6bd694b
[LVP] PREDICT instr_id: 3646 ip: 0x7e7ad3da4920 predicted: 0xb6bd694b
[LVP] PREDICT instr_id: 3653 ip: 0x7e7ad3da4920 predicted: 0xb6bd694b
[LVP] PREDICT instr_id: 3660 ip: 0x7e7ad3da4920 predicted: 0xb6bd694b
[LVP] PREDICT instr_id: 3667 ip: 0x7e7ad3da4920 predicted: 0xb6bd694b
[LVP] PREDICT instr_id: 3674 ip: 0x7e7ad3da4920 predicted: 0xb6bd694b
[LVP] PREDICT instr_id: 3688 ip: 0x7e7ad3da4968 predicted: 0xb6bd6937
[LVP] PREDICT instr_id: 3694 ip: 0x7e7ad3da4993 predicted: 0xd3dc60e0
[LVP] PREDICT instr_id: 3697 ip: 0x7e7ad3da499d predicted: 0xd3dc60e1
[LVP] PREDICT instr_id: 3705 ip: 0x7e7ad3da4993 predicted: 0xd3dc6168
[LVP] PREDICT instr_id: 3708 ip: 0x7e7ad3da499d predicted: 0xd3dc6169
[LVP] PREDICT instr_id: 3713 ip: 0x7e7ad3da49b0 predicted: 0xb6bd6937
[LVP] PREDICT instr_id: 3720 ip: 0x7e7ad3da4993 predicted: 0xd3dc61f0
[LVP] PREDICT instr_id: 3723 ip: 0x7e7ad3da499d predicted: 0xd3dc6279
[LVP] PREDICT instr_id: 3731 ip: 0x7e7ad3da4993 predicted: 0xd3dc6278
[LVP] PREDICT instr_id: 3734 ip: 0x7e7ad3da499d predicted: 0xd3dc6279
[LVP] PREDICT instr_id: 3742 ip: 0x7e7ad3da4993 predicted: 0xd3dc6300
[LVP] PREDICT instr_id: 3745 ip: 0x7e7ad3da499d predicted: 0xd3dc6301
[LVP] PREDICT instr_id: 3753 ip: 0x7e7ad3da4993 predicted: 0xd3dc6388
[LVP] PREDICT instr_id: 3756 ip: 0x7e7ad3da499d predicted: 0xd3dc6389
[LVP] PREDICT instr_id: 3764 ip: 0x7e7ad3da4993 predicted: 0xd3dc6410
[LVP] PREDICT instr_id: 3767 ip: 0x7e7ad3da499d predicted: 0xd3dc6411
[LVP] PREDICT instr_id: 3775 ip: 0x7e7ad3da4993 predicted: 0xd3dc6498
[LVP] PREDICT instr_id: 3778 ip: 0x7e7ad3da499d predicted: 0xd3dc6499
[LVP] PREDICT instr_id: 3786 ip: 0x7e7ad3da4993 predicted: 0xd3dc6520
[LVP] PREDICT instr_id: 3789 ip: 0x7e7ad3da499d predicted: 0xd3dc6521
[LVP] PREDICT instr_id: 3797 ip: 0x7e7ad3da4993 predicted: 0xd3dc6520
[LVP] PREDICT instr_id: 3800 ip: 0x7e7ad3da499d predicted: 0xd3dc65a9
[LVP] PREDICT instr_id: 3808 ip: 0x7e7ad3da4993 predicted: 0xd3dc6630
[LVP] PREDICT instr_id: 3811 ip: 0x7e7ad3da499d predicted: 0xd3dc6631
[LVP] PREDICT instr_id: 3819 ip: 0x7e7ad3da4993 predicted: 0xd3dc66b8
[LVP] PREDICT instr_id: 3822 ip: 0x7e7ad3da499d predicted: 0xd3dc66b9
[LVP] PREDICT instr_id: 3830 ip: 0x7e7ad3da4993 predicted: 0xd3dc66b8
[LVP] PREDICT instr_id: 3833 ip: 0x7e7ad3da499d predicted: 0xd3dc6741
[LVP] PREDICT instr_id: 3838 ip: 0x7e7ad3da49b0 predicted: 0xb6bd6937
[LVP] PREDICT instr_id: 3845 ip: 0x7e7ad3da4993 predicted: 0xd3dc67c8
[LVP] PREDICT instr_id: 3848 ip: 0x7e7ad3da499d predicted: 0xd3dc67c9
[LVP] PREDICT instr_id: 3853 ip: 0x7e7ad3da49b0 predicted: 0xb6bd6937
[LVP] PREDICT instr_id: 3860 ip: 0x7e7ad3da4993 predicted: 0xd3dc6850
[LVP] PREDICT instr_id: 3863 ip: 0x7e7ad3da499d predicted: 0xd3dc6851
[LVP] PREDICT instr_id: 3868 ip: 0x7e7ad3da49b0 predicted: 0xb6bd6937
[LVP] PREDICT instr_id: 3875 ip: 0x7e7ad3da4993 predicted: 0xd3dc68d8
[LVP] PREDICT instr_id: 3878 ip: 0x7e7ad3da499d predicted: 0xd3dc68d9
[LVP] PREDICT instr_id: 3886 ip: 0x7e7ad3da4993 predicted: 0xd3dc6960
[LVP] PREDICT instr_id: 3889 ip: 0x7e7ad3da499d predicted: 0xd3dc6961
[LVP] PREDICT instr_id: 3897 ip: 0x7e7ad3da4993 predicted: 0xd3dc69e8
[LVP] PREDICT instr_id: 3900 ip: 0x7e7ad3da499d predicted: 0xd3dc69e9
[LVP] PREDICT instr_id: 3908 ip: 0x7e7ad3da4993 predicted: 0xd3dc69e8
[LVP] PREDICT instr_id: 3911 ip: 0x7e7ad3da499d predicted: 0xd3dc69e9
[LVP] PREDICT instr_id: 3919 ip: 0x7e7ad3da4993 predicted: 0xd3dc69e8
[LVP] PREDICT instr_id: 3922 ip: 0x7e7ad3da499d predicted: 0xd3dc69e9
[LVP] PREDICT instr_id: 3927 ip: 0x7e7ad3da49b0 predicted: 0xb6bd6937
[LVP] PREDICT instr_id: 3934 ip: 0x7e7ad3da4993 predicted: 0xd3dc69e8
[LVP] PREDICT instr_id: 3937 ip: 0x7e7ad3da499d predicted: 0xd3dc69e9
[LVP] PREDICT instr_id: 3945 ip: 0x7e7ad3da4993 predicted: 0xd3dc69e8
[LVP] PREDICT instr_id: 3948 ip: 0x7e7ad3da499d predicted: 0xd3dc69e9
[LVP] PREDICT instr_id: 3956 ip: 0x7e7ad3da4993 predicted: 0xd3dc69e8
[LVP] PREDICT instr_id: 3959 ip: 0x7e7ad3da499d predicted: 0xd3dc69e9
[LVP] PREDICT instr_id: 3967 ip: 0x7e7ad3da4993 predicted: 0xd3dc69e8
[LVP] PREDICT instr_id: 3970 ip: 0x7e7ad3da499d predicted: 0xd3dc69e9
[LVP] PREDICT instr_id: 3975 ip: 0x7e7ad3da49b0 predicted: 0xb6bd6937
[LVP] PREDICT instr_id: 3982 ip: 0x7e7ad3da4993 predicted: 0xd3dc69e8
[LVP] PREDICT instr_id: 3985 ip: 0x7e7ad3da499d predicted: 0xd3dc69e9
[LVP] PREDICT instr_id: 3993 ip: 0x7e7ad3da4993 predicted: 0xd3dc69e8
[LVP] PREDICT instr_id: 3996 ip: 0x7e7ad3da499d predicted: 0xd3dc69e9
[LVP] PREDICT instr_id: 4004 ip: 0x7e7ad3da4993 predicted: 0xd3dc69e8
[LVP] PREDICT instr_id: 4007 ip: 0x7e7ad3da499d predicted: 0xd3dc69e9
[LVP] PREDICT instr_id: 4012 ip: 0x7e7ad3da49b0 predicted: 0xb6bd6937
[LVP] PREDICT instr_id: 4019 ip: 0x7e7ad3da4993 predicted: 0xd3dc69e8
[LVP] PREDICT instr_id: 4022 ip: 0x7e7ad3da499d predicted: 0xd3dc69e9
[LVP] PREDICT instr_id: 4030 ip: 0x7e7ad3da4993 predicted: 0xd3dc69e8
[LVP] PREDICT instr_id: 4033 ip: 0x7e7ad3da499d predicted: 0xd3dc69e9
[LVP] PREDICT instr_id: 4041 ip: 0x7e7ad3da4993 predicted: 0xd3dc54a8
[LVP] PREDICT instr_id: 4044 ip: 0x7e7ad3da499d predicted: 0xd3dc54a9
[LVP] PREDICT instr_id: 4052 ip: 0x7e7ad3da4993 predicted: 0xd3dc5530
[LVP] PREDICT instr_id: 4055 ip: 0x7e7ad3da499d predicted: 0xd3dc5531
[LVP] PREDICT instr_id: 4063 ip: 0x7e7ad3da4993 predicted: 0xd3dc55b8
[LVP] PREDICT instr_id: 4066 ip: 0x7e7ad3da499d predicted: 0xd3dc55b9
[LVP] PREDICT instr_id: 4071 ip: 0x7e7ad3da49b0 predicted: 0xb6bd6954
[LVP] PREDICT instr_id: 4078 ip: 0x7e7ad3da4993 predicted: 0xd3dc5640
[LVP] PREDICT instr_id: 4081 ip: 0x7e7ad3da499d predicted: 0xd3dc5641
[LVP] PREDICT instr_id: 4089 ip: 0x7e7ad3da4993 predicted: 0xd3dc56c8
[LVP] PREDICT instr_id: 4092 ip: 0x7e7ad3da499d predicted: 0xd3dc56c9
[LVP] PREDICT instr_id: 4097 ip: 0x7e7ad3da49b0 predicted: 0xb6bd6954
[LVP] PREDICT instr_id: 4104 ip: 0x7e7ad3da4993 predicted: 0xd3dc5750
[LVP] PREDICT instr_id: 4107 ip: 0x7e7ad3da499d predicted: 0xd3dc57d9
[LVP] PREDICT instr_id: 4115 ip: 0x7e7ad3da4993 predicted: 0xd3dc57d8
[LVP] PREDICT instr_id: 4118 ip: 0x7e7ad3da499d predicted: 0xd3dc5861
[LVP] PREDICT instr_id: 4126 ip: 0x7e7ad3da4993 predicted: 0xd3dc58e8
[LVP] PREDICT instr_id: 4129 ip: 0x7e7ad3da499d predicted: 0xd3dc58e9
[LVP] PREDICT instr_id: 4137 ip: 0x7e7ad3da4993 predicted: 0xd3dc5970
[LVP] PREDICT instr_id: 4140 ip: 0x7e7ad3da499d predicted: 0xd3dc5971
[LVP] PREDICT instr_id: 4148 ip: 0x7e7ad3da4993 predicted: 0xd3dc5970
[LVP] PREDICT instr_id: 4151 ip: 0x7e7ad3da499d predicted: 0xd3dc59f9
[LVP] PREDICT instr_id: 4156 ip: 0x7e7ad3da49b0 predicted: 0xb6bd6954
[LVP] PREDICT instr_id: 4163 ip: 0x7e7ad3da4993 predicted: 0xd3dc5a80
[LVP] PREDICT instr_id: 4166 ip: 0x7e7ad3da499d predicted: 0xd3dc5a81
[LVP] PREDICT instr_id: 4174 ip: 0x7e7ad3da4993 predicted: 0xd3dc5b08
[LVP] PREDICT instr_id: 4177 ip: 0x7e7ad3da499d predicted: 0xd3dc5b09
[LVP] PREDICT instr_id: 4187 ip: 0x7e7ad3da48f9 predicted: 0xb6bd56b8
[LVP] PREDICT instr_id: 4190 ip: 0x7e7ad3da4905 predicted: 0xb6bd6954
[LVP] PREDICT instr_id: 4198 ip: 0x7e7ad3da4920 predicted: 0xb6bd6963
[LVP] PREDICT instr_id: 4205 ip: 0x7e7ad3da4920 predicted: 0xb6bd6963
[LVP] PREDICT instr_id: 4212 ip: 0x7e7ad3da4920 predicted: 0xb6bd6963
[LVP] PREDICT instr_id: 4219 ip: 0x7e7ad3da4920 predicted: 0xb6bd6963
[LVP] PREDICT instr_id: 4233 ip: 0x7e7ad3da4968 predicted: 0xb6bd6954
[LVP] PREDICT instr_id: 4239 ip: 0x7e7ad3da4993 predicted: 0xd3dc5db0
[LVP] PREDICT instr_id: 4242 ip: 0x7e7ad3da499d predicted: 0xd3dc5db1
[LVP] PREDICT instr_id: 4250 ip: 0x7e7ad3da4993 predicted: 0xd3dc5e38
[LVP] PREDICT instr_id: 4253 ip: 0x7e7ad3da499d predicted: 0xd3dc5e39
[LVP] PREDICT instr_id: 4258 ip: 0x7e7ad3da49b0 predicted: 0xb6bd6954
[LVP] PREDICT instr_id: 4265 ip: 0x7e7ad3da4993 predicted: 0xd3dc5ec0
[LVP] PREDICT instr_id: 4268 ip: 0x7e7ad3da499d predicted: 0xd3dc5ec1
[LVP] PREDICT instr_id: 4276 ip: 0x7e7ad3da4993 predicted: 0xd3dc5f48
[LVP] PREDICT instr_id: 4279 ip: 0x7e7ad3da499d predicted: 0xd3dc5f49
[LVP] PREDICT instr_id: 4287 ip: 0x7e7ad3da4993 predicted: 0xd3dc5fd0
[LVP] PREDICT instr_id: 4290 ip: 0x7e7ad3da499d predicted: 0xd3dc5fd1
[LVP] PREDICT instr_id: 4298 ip: 0x7e7ad3da4993 predicted: 0xd3dc6058
[LVP] PREDICT instr_id: 4301 ip: 0x7e7ad3da499d predicted: 0xd3dc6059
[LVP] PREDICT instr_id: 4309 ip: 0x7e7ad3da4993 predicted: 0xd3dc60e0
[LVP] PREDICT instr_id: 4312 ip: 0x7e7ad3da499d predicted: 0xd3dc60e1
[LVP] PREDICT instr_id: 4320 ip: 0x7e7ad3da4993 predicted: 0xd3dc6168
[LVP] PREDICT instr_id: 4323 ip: 0x7e7ad3da499d predicted: 0xd3dc6169
[LVP] PREDICT instr_id: 4331 ip: 0x7e7ad3da4993 predicted: 0xd3dc6168
[LVP] PREDICT instr_id: 4334 ip: 0x7e7ad3da499d predicted: 0xd3dc61f1
[LVP] PREDICT instr_id: 4342 ip: 0x7e7ad3da4993 predicted: 0xd3dc61f0
[LVP] PREDICT instr_id: 4345 ip: 0x7e7ad3da499d predicted: 0xd3dc6279
[LVP] PREDICT instr_id: 4353 ip: 0x7e7ad3da4993 predicted: 0xd3dc6278
[LVP] PREDICT instr_id: 4356 ip: 0x7e7ad3da499d predicted: 0xd3dc6279
[LVP] PREDICT instr_id: 4364 ip: 0x7e7ad3da4993 predicted: 0xd3dc6300
[LVP] PREDICT instr_id: 4367 ip: 0x7e7ad3da499d predicted: 0xd3dc6301
[LVP] PREDICT instr_id: 4375 ip: 0x7e7ad3da4993 predicted: 0xd3dc6388
[LVP] PREDICT instr_id: 4378 ip: 0x7e7ad3da499d predicted: 0xd3dc6389
[LVP] PREDICT instr_id: 4383 ip: 0x7e7ad3da49b0 predicted: 0xb6bd6954
[LVP] PREDICT instr_id: 4390 ip: 0x7e7ad3da4993 predicted: 0xd3dc6410
[LVP] PREDICT instr_id: 4393 ip: 0x7e7ad3da499d predicted: 0xd3dc6499
[LVP] PREDICT instr_id: 4398 ip: 0x7e7ad3da49b0 predicted: 0xb6bd6954
[LVP] PREDICT instr_id: 4405 ip: 0x7e7ad3da4993 predicted: 0xd3dc6520
[LVP] PREDICT instr_id: 4408 ip: 0x7e7ad3da499d predicted: 0xd3dc6521
[LVP] PREDICT instr_id: 4413 ip: 0x7e7ad3da49b0 predicted: 0xb6bd6954
[LVP] PREDICT instr_id: 4420 ip: 0x7e7ad3da4993 predicted: 0xd3dc65a8
[LVP] PREDICT instr_id: 4423 ip: 0x7e7ad3da499d predicted: 0xd3dc65a9
[LVP] PREDICT instr_id: 4431 ip: 0x7e7ad3da4993 predicted: 0xd3dc6630
[LVP] PREDICT instr_id: 4434 ip: 0x7e7ad3da499d predicted: 0xd3dc6631
[LVP] PREDICT instr_id: 4442 ip: 0x7e7ad3da4993 predicted: 0xd3dc6630
[LVP] PREDICT instr_id: 4445 ip: 0x7e7ad3da499d predicted: 0xd3dc6631
[LVP] PREDICT instr_id: 4453 ip: 0x7e7ad3da4993 predicted: 0xd3dc66b8
[LVP] PREDICT instr_id: 4456 ip: 0x7e7ad3da499d predicted: 0xd3dc6741
[LVP] PREDICT instr_id: 4464 ip: 0x7e7ad3da4993 predicted: 0xd3dc6740
[LVP] PREDICT instr_id: 4467 ip: 0x7e7ad3da499d predicted: 0xd3dc67c9
[LVP] PREDICT instr_id: 4472 ip: 0x7e7ad3da49b0 predicted: 0xb6bd6954
[LVP] PREDICT instr_id: 4479 ip: 0x7e7ad3da4993 predicted: 0xd3dc6850
[LVP] PREDICT instr_id: 4482 ip: 0x7e7ad3da499d predicted: 0xd3dc6851
[LVP] PREDICT instr_id: 4490 ip: 0x7e7ad3da4993 predicted: 0xd3dc68d8
[LVP] PREDICT instr_id: 4493 ip: 0x7e7ad3da499d predicted: 0xd3dc68d9
[LVP] PREDICT instr_id: 4501 ip: 0x7e7ad3da4993 predicted: 0xd3dc68d8
[LVP] PREDICT instr_id: 4504 ip: 0x7e7ad3da499d predicted: 0xd3dc68d9
[LVP] PREDICT instr_id: 4512 ip: 0x7e7ad3da4993 predicted: 0xd3dc6960
[LVP] PREDICT instr_id: 4515 ip: 0x7e7ad3da499d predicted: 0xd3dc69e9
[LVP] PREDICT instr_id: 4520 ip: 0x7e7ad3da49b0 predicted: 0xb6bd6954
[LVP] PREDICT instr_id: 4527 ip: 0x7e7ad3da4993 predicted: 0xd3dc69e8
[LVP] PREDICT instr_id: 4530 ip: 0x7e7ad3da499d predicted: 0xd3dc69e9
[LVP] PREDICT instr_id: 4538 ip: 0x7e7ad3da4993 predicted: 0xd3dc69e8
[LVP] PREDICT instr_id: 4541 ip: 0x7e7ad3da499d predicted: 0xd3dc69e9
[LVP] PREDICT instr_id: 4549 ip: 0x7e7ad3da4993 predicted: 0xd3dc69e8
[LVP] PREDICT instr_id: 4552 ip: 0x7e7ad3da499d predicted: 0xd3dc69e9
[LVP] PREDICT instr_id: 4557 ip: 0x7e7ad3da49b0 predicted: 0xb6bd6954
[LVP] PREDICT instr_id: 4564 ip: 0x7e7ad3da4993 predicted: 0xd3dc69e8
[LVP] PREDICT instr_id: 4567 ip: 0x7e7ad3da499d predicted: 0xd3dc69e9
[LVP] PREDICT instr_id: 4575 ip: 0x7e7ad3da4993 predicted: 0xd3dc69e8
[LVP] PREDICT instr_id: 4578 ip: 0x7e7ad3da499d predicted: 0xd3dc69e9
[LVP] PREDICT instr_id: 4586 ip: 0x7e7ad3da4993 predicted: 0xd3dc54a8
[LVP] PREDICT instr_id: 4589 ip: 0x7e7ad3da499d predicted: 0xd3dc54a9
[LVP] PREDICT instr_id: 4597 ip: 0x7e7ad3da4993 predicted: 0xd3dc5530
[LVP] PREDICT instr_id: 4600 ip: 0x7e7ad3da499d predicted: 0xd3dc5531
[LVP] PREDICT instr_id: 4608 ip: 0x7e7ad3da4993 predicted: 0xd3dc55b8
[LVP] PREDICT instr_id: 4611 ip: 0x7e7ad3da499d predicted: 0xd3dc55b9
[LVP] PREDICT instr_id: 4616 ip: 0x7e7ad3da49b0 predicted: 0xb6bd696b
[LVP] PREDICT instr_id: 4623 ip: 0x7e7ad3da4993 predicted: 0xd3dc5640
[LVP] PREDICT instr_id: 4626 ip: 0x7e7ad3da499d predicted: 0xd3dc5641
[LVP] PREDICT instr_id: 4634 ip: 0x7e7ad3da4993 predicted: 0xd3dc56c8
[LVP] PREDICT instr_id: 4637 ip: 0x7e7ad3da499d predicted: 0xd3dc56c9
[LVP] PREDICT instr_id: 4642 ip: 0x7e7ad3da49b0 predicted: 0xb6bd696b
[LVP] PREDICT instr_id: 4649 ip: 0x7e7ad3da4993 predicted: 0xd3dc57d8
[LVP] PREDICT instr_id: 4652 ip: 0x7e7ad3da499d predicted: 0xd3dc57d9
[LVP] PREDICT instr_id: 4660 ip: 0x7e7ad3da4993 predicted: 0xd3dc57d8
[LVP] PREDICT instr_id: 4663 ip: 0x7e7ad3da499d predicted: 0xd3dc5861
[LVP] PREDICT instr_id: 4671 ip: 0x7e7ad3da4993 predicted: 0xd3dc5860
[LVP] PREDICT instr_id: 4674 ip: 0x7e7ad3da499d predicted: 0xd3dc58e9
[LVP] PREDICT instr_id: 4682 ip: 0x7e7ad3da4993 predicted: 0xd3dc5970
[LVP] PREDICT instr_id: 4685 ip: 0x7e7ad3da499d predicted: 0xd3dc5971
[LVP] PREDICT instr_id: 4693 ip: 0x7e7ad3da4993 predicted: 0xd3dc59f8
[LVP] PREDICT instr_id: 4696 ip: 0x7e7ad3da499d predicted: 0xd3dc59f9
[LVP] PREDICT instr_id: 4701 ip: 0x7e7ad3da49b0 predicted: 0xb6bd696b
[LVP] PREDICT instr_id: 4708 ip: 0x7e7ad3da4993 predicted: 0xd3dc5a80
[LVP] PREDICT instr_id: 4711 ip: 0x7e7ad3da499d predicted: 0xd3dc5a81
[LVP] PREDICT instr_id: 4719 ip: 0x7e7ad3da4993 predicted: 0xd3dc5b08
[LVP] PREDICT instr_id: 4722 ip: 0x7e7ad3da499d predicted: 0xd3dc5b09
[LVP] PREDICT instr_id: 4732 ip: 0x7e7ad3da48f9 predicted: 0xb6bd56c0
[LVP] PREDICT instr_id: 4735 ip: 0x7e7ad3da4905 predicted: 0xb6bd696b
[LVP] PREDICT instr_id: 4743 ip: 0x7e7ad3da4920 predicted: 0xb6bd696f
[LVP] PREDICT instr_id: 4750 ip: 0x7e7ad3da4920 predicted: 0xb6bd696f
[LVP] PREDICT instr_id: 4757 ip: 0x7e7ad3da4920 predicted: 0xb6bd696f
[LVP] PREDICT instr_id: 4771 ip: 0x7e7ad3da4968 predicted: 0xb6bd696b
[LVP] PREDICT instr_id: 4777 ip: 0x7e7ad3da4993 predicted: 0xd3dc5d28
[LVP] PREDICT instr_id: 4780 ip: 0x7e7ad3da499d predicted: 0xd3dc5d29
[LVP] PREDICT instr_id: 4788 ip: 0x7e7ad3da4993 predicted: 0xd3dc5db0
[LVP] PREDICT instr_id: 4791 ip: 0x7e7ad3da499d predicted: 0xd3dc5db1
[LVP] PREDICT instr_id: 4796 ip: 0x7e7ad3da49b0 predicted: 0xb6bd696b
[LVP] PREDICT instr_id: 4803 ip: 0x7e7ad3da4993 predicted: 0xd3dc5e38
[LVP] PREDICT instr_id: 4806 ip: 0x7e7ad3da499d predicted: 0xd3dc5ec1
[LVP] PREDICT instr_id: 4814 ip: 0x7e7ad3da4993 predicted: 0xd3dc5ec0
[LVP] PREDICT instr_id: 4817 ip: 0x7e7ad3da499d predicted: 0xd3dc5ec1
[LVP] PREDICT instr_id: 4825 ip: 0x7e7ad3da4993 predicted: 0xd3dc5f48
[LVP] PREDICT instr_id: 4828 ip: 0x7e7ad3da499d predicted: 0xd3dc5f49
[LVP] PREDICT instr_id: 4836 ip: 0x7e7ad3da4993 predicted: 0xd3dc5fd0
[LVP] PREDICT instr_id: 4839 ip: 0x7e7ad3da499d predicted: 0xd3dc5fd1
[LVP] PREDICT instr_id: 4847 ip: 0x7e7ad3da4993 predicted: 0xd3dc6058
[LVP] PREDICT instr_id: 4850 ip: 0x7e7ad3da499d predicted: 0xd3dc6059
[LVP] PREDICT instr_id: 4858 ip: 0x7e7ad3da4993 predicted: 0xd3dc60e0
[LVP] PREDICT instr_id: 4861 ip: 0x7e7ad3da499d predicted: 0xd3dc60e1
[LVP] PREDICT instr_id: 4869 ip: 0x7e7ad3da4993 predicted: 0xd3dc6168
[LVP] PREDICT instr_id: 4872 ip: 0x7e7ad3da499d predicted: 0xd3dc6169
[LVP] PREDICT instr_id: 4880 ip: 0x7e7ad3da4993 predicted: 0xd3dc61f0
[LVP] PREDICT instr_id: 4883 ip: 0x7e7ad3da499d predicted: 0xd3dc61f1
[LVP] PREDICT instr_id: 4891 ip: 0x7e7ad3da4993 predicted: 0xd3dc6278
[LVP] PREDICT instr_id: 4894 ip: 0x7e7ad3da499d predicted: 0xd3dc6279
[LVP] PREDICT instr_id: 4902 ip: 0x7e7ad3da4993 predicted: 0xd3dc6278
[LVP] PREDICT instr_id: 4905 ip: 0x7e7ad3da499d predicted: 0xd3dc6279
[LVP] PREDICT instr_id: 4913 ip: 0x7e7ad3da4993 predicted: 0xd3dc6300
[LVP] PREDICT instr_id: 4916 ip: 0x7e7ad3da499d predicted: 0xd3dc6389
[LVP] PREDICT instr_id: 4921 ip: 0x7e7ad3da49b0 predicted: 0xb6bd696b
[LVP] PREDICT instr_id: 4928 ip: 0x7e7ad3da4993 predicted: 0xd3dc6410
[LVP] PREDICT instr_id: 4931 ip: 0x7e7ad3da499d predicted: 0xd3dc6411
[LVP] PREDICT instr_id: 4936 ip: 0x7e7ad3da49b0 predicted: 0xb6bd696b
[LVP] PREDICT instr_id: 4943 ip: 0x7e7ad3da4993 predicted: 0xd3dc6498
[LVP] PREDICT instr_id: 4946 ip: 0x7e7ad3da499d predicted: 0xd3dc6499
[LVP] PREDICT instr_id: 4951 ip: 0x7e7ad3da49b0 predicted: 0xb6bd696b
[LVP] PREDICT instr_id: 4958 ip: 0x7e7ad3da4993 predicted: 0xd3dc6520
[LVP] PREDICT instr_id: 4961 ip: 0x7e7ad3da499d predicted: 0xd3dc6521
[LVP] PREDICT instr_id: 4969 ip: 0x7e7ad3da4993 predicted: 0xd3dc65a8
[LVP] PREDICT instr_id: 4972 ip: 0x7e7ad3da499d predicted: 0xd3dc65a9
[LVP] PREDICT instr_id: 4980 ip: 0x7e7ad3da4993 predicted: 0xd3dc6630
[LVP] PREDICT instr_id: 4983 ip: 0x7e7ad3da499d predicted: 0xd3dc6631
[LVP] PREDICT instr_id: 4991 ip: 0x7e7ad3da4993 predicted: 0xd3dc66b8
[LVP] PREDICT instr_id: 4994 ip: 0x7e7ad3da499d predicted: 0xd3dc66b9
[LVP] PREDICT instr_id: 5002 ip: 0x7e7ad3da4993 predicted: 0xd3dc6740
[LVP] PREDICT instr_id: 5005 ip: 0x7e7ad3da499d predicted: 0xd3dc6741
[LVP] PREDICT instr_id: 5010 ip: 0x7e7ad3da49b0 predicted: 0xb6bd696b
[LVP] PREDICT instr_id: 5017 ip: 0x7e7ad3da4993 predicted: 0xd3dc67c8
[LVP] PREDICT instr_id: 5020 ip: 0x7e7ad3da499d predicted: 0xd3dc67c9
[LVP] PREDICT instr_id: 5028 ip: 0x7e7ad3da4993 predicted: 0xd3dc6850
[LVP] PREDICT instr_id: 5031 ip: 0x7e7ad3da499d predicted: 0xd3dc6851
[LVP] PREDICT instr_id: 5039 ip: 0x7e7ad3da4993 predicted: 0xd3dc68d8
[LVP] PREDICT instr_id: 5042 ip: 0x7e7ad3da499d predicted: 0xd3dc68d9
[LVP] PREDICT instr_id: 5050 ip: 0x7e7ad3da4993 predicted: 0xd3dc6960
[LVP] PREDICT instr_id: 5053 ip: 0x7e7ad3da499d predicted: 0xd3dc6961
[LVP] PREDICT instr_id: 5058 ip: 0x7e7ad3da49b0 predicted: 0xb6bd696b
[LVP] PREDICT instr_id: 5065 ip: 0x7e7ad3da4993 predicted: 0xd3dc69e8
[LVP] PREDICT instr_id: 5068 ip: 0x7e7ad3da499d predicted: 0xd3dc69e9
[LVP] PREDICT instr_id: 5076 ip: 0x7e7ad3da4993 predicted: 0xd3dc69e8
[LVP] PREDICT instr_id: 5079 ip: 0x7e7ad3da499d predicted: 0xd3dc69e9
[LVP] PREDICT instr_id: 5087 ip: 0x7e7ad3da4993 predicted: 0xd3dc69e8
[LVP] PREDICT instr_id: 5090 ip: 0x7e7ad3da499d predicted: 0xd3dc69e9
[LVP] PREDICT instr_id: 5095 ip: 0x7e7ad3da49b0 predicted: 0xb6bd696b
[LVP] PREDICT instr_id: 5102 ip: 0x7e7ad3da4993 predicted: 0xd3dc69e8
[LVP] PREDICT instr_id: 5105 ip: 0x7e7ad3da499d predicted: 0xd3dc69e9
[LVP] PREDICT instr_id: 5113 ip: 0x7e7ad3da4993 predicted: 0xd3dc69e8
[LVP] PREDICT instr_id: 5116 ip: 0x7e7ad3da499d predicted: 0xd3dc69e9
[LVP] PREDICT instr_id: 5124 ip: 0x7e7ad3da4993 predicted: 0xd3dc54a8
[LVP] PREDICT instr_id: 5127 ip: 0x7e7ad3da499d predicted: 0xd3dc54a9
[LVP] PREDICT instr_id: 5135 ip: 0x7e7ad3da4993 predicted: 0xd3dc5530
[LVP] PREDICT instr_id: 5138 ip: 0x7e7ad3da499d predicted: 0xd3dc5531
[LVP] PREDICT instr_id: 5146 ip: 0x7e7ad3da4993 predicted: 0xd3dc55b8
[LVP] PREDICT instr_id: 5149 ip: 0x7e7ad3da499d predicted: 0xd3dc55b9
[LVP] PREDICT instr_id: 5154 ip: 0x7e7ad3da49b0 predicted: 0xb6bd6979
[LVP] PREDICT instr_id: 5161 ip: 0x7e7ad3da4993 predicted: 0xd3dc5640
[LVP] PREDICT instr_id: 5164 ip: 0x7e7ad3da499d predicted: 0xd3dc5641
[LVP] PREDICT instr_id: 5172 ip: 0x7e7ad3da4993 predicted: 0xd3dc56c8
[LVP] PREDICT instr_id: 5175 ip: 0x7e7ad3da499d predicted: 0xd3dc56c9
[LVP] PREDICT instr_id: 5180 ip: 0x7e7ad3da49b0 predicted: 0xb6bd6979
[LVP] PREDICT instr_id: 5187 ip: 0x7e7ad3da4993 predicted: 0xd3dc5750
[LVP] PREDICT instr_id: 5190 ip: 0x7e7ad3da499d predicted: 0xd3dc57d9
[LVP] PREDICT instr_id: 5198 ip: 0x7e7ad3da4993 predicted: 0xd3dc5860
[LVP] PREDICT instr_id: 5201 ip: 0x7e7ad3da499d predicted: 0xd3dc5861
[LVP] PREDICT instr_id: 5209 ip: 0x7e7ad3da4993 predicted: 0xd3dc58e8
[LVP] PREDICT instr_id: 5212 ip: 0x7e7ad3da499d predicted: 0xd3dc58e9
[LVP] PREDICT instr_id: 5220 ip: 0x7e7ad3da4993 predicted: 0xd3dc58e8
[LVP] PREDICT instr_id: 5223 ip: 0x7e7ad3da499d predicted: 0xd3dc5971
[LVP] PREDICT instr_id: 5231 ip: 0x7e7ad3da4993 predicted: 0xd3dc5970
[LVP] PREDICT instr_id: 5234 ip: 0x7e7ad3da499d predicted: 0xd3dc59f9
[LVP] PREDICT instr_id: 5239 ip: 0x7e7ad3da49b0 predicted: 0xb6bd6979
[LVP] PREDICT instr_id: 5246 ip: 0x7e7ad3da4993 predicted: 0xd3dc5a80
[LVP] PREDICT instr_id: 5249 ip: 0x7e7ad3da499d predicted: 0xd3dc5a81
[LVP] PREDICT instr_id: 5257 ip: 0x7e7ad3da4993 predicted: 0xd3dc5b08
[LVP] PREDICT instr_id: 5260 ip: 0x7e7ad3da499d predicted: 0xd3dc5b09
[LVP] PREDICT instr_id: 5270 ip: 0x7e7ad3da48f9 predicted: 0xb6bd56c8
[LVP] PREDICT instr_id: 5273 ip: 0x7e7ad3da4905 predicted: 0xb6bd6979
[LVP] PREDICT instr_id: 5281 ip: 0x7e7ad3da4920 predicted: 0xb6bd697c
[LVP] PREDICT instr_id: 5288 ip: 0x7e7ad3da4920 predicted: 0xb6bd697c
[LVP] PREDICT instr_id: 5295 ip: 0x7e7ad3da4920 predicted: 0xb6bd697c
[LVP] PREDICT instr_id: 5302 ip: 0x7e7ad3da4920 predicted: 0xb6bd697c
[LVP] PREDICT instr_id: 5309 ip: 0x7e7ad3da4920 predicted: 0xb6bd697c
[LVP] PREDICT instr_id: 5316 ip: 0x7e7ad3da4920 predicted: 0xb6bd697c
[LVP] PREDICT instr_id: 5323 ip: 0x7e7ad3da4920 predicted: 0xb6bd697c
[LVP] PREDICT instr_id: 5337 ip: 0x7e7ad3da4968 predicted: 0xb6bd6979
[LVP] PREDICT instr_id: 5343 ip: 0x7e7ad3da4993 predicted: 0xd3dc5ec0
[LVP] PREDICT instr_id: 5346 ip: 0x7e7ad3da499d predicted: 0xd3dc5ec1
[LVP] PREDICT instr_id: 5354 ip: 0x7e7ad3da4993 predicted: 0xd3dc5ec0
[LVP] PREDICT instr_id: 5357 ip: 0x7e7ad3da499d predicted: 0xd3dc5ec1
[LVP] PREDICT instr_id: 5362 ip: 0x7e7ad3da49b0 predicted: 0xb6bd6979
[LVP] PREDICT instr_id: 5369 ip: 0x7e7ad3da4993 predicted: 0xd3dc5fd0
[LVP] PREDICT instr_id: 5372 ip: 0x7e7ad3da499d predicted: 0xd3dc5fd1
[LVP] PREDICT instr_id: 5380 ip: 0x7e7ad3da4993 predicted: 0xd3dc6058
[LVP] PREDICT instr_id: 5383 ip: 0x7e7ad3da499d predicted: 0xd3dc6059
[LVP] PREDICT instr_id: 5391 ip: 0x7e7ad3da4993 predicted: 0xd3dc60e0
[LVP] PREDICT instr_id: 5394 ip: 0x7e7ad3da499d predicted: 0xd3dc60e1
[LVP] PREDICT instr_id: 5402 ip: 0x7e7ad3da4993 predicted: 0xd3dc60e0
[LVP] PREDICT instr_id: 5405 ip: 0x7e7ad3da499d predicted: 0xd3dc60e1
[LVP] PREDICT instr_id: 5413 ip: 0x7e7ad3da4993 predicted: 0xd3dc6168
[LVP] PREDICT instr_id: 5416 ip: 0x7e7ad3da499d predicted: 0xd3dc6169
[LVP] PREDICT instr_id: 5424 ip: 0x7e7ad3da4993 predicted: 0xd3dc61f0
[LVP] PREDICT instr_id: 5427 ip: 0x7e7ad3da499d predicted: 0xd3dc61f1
[LVP] PREDICT instr_id: 5435 ip: 0x7e7ad3da4993 predicted: 0xd3dc6278
[LVP] PREDICT instr_id: 5438 ip: 0x7e7ad3da499d predicted: 0xd3dc6279
[LVP] PREDICT instr_id: 5446 ip: 0x7e7ad3da4993 predicted: 0xd3dc6300
[LVP] PREDICT instr_id: 5449 ip: 0x7e7ad3da499d predicted: 0xd3dc6301
[LVP] PREDICT instr_id: 5457 ip: 0x7e7ad3da4993 predicted: 0xd3dc6388
[LVP] PREDICT instr_id: 5460 ip: 0x7e7ad3da499d predicted: 0xd3dc6389
[LVP] PREDICT instr_id: 5468 ip: 0x7e7ad3da4993 predicted: 0xd3dc6410
[LVP] PREDICT instr_id: 5471 ip: 0x7e7ad3da499d predicted: 0xd3dc6411
[LVP] PREDICT instr_id: 5479 ip: 0x7e7ad3da4993 predicted: 0xd3dc6498
[LVP] PREDICT instr_id: 5482 ip: 0x7e7ad3da499d predicted: 0xd3dc6499
[LVP] PREDICT instr_id: 5487 ip: 0x7e7ad3da49b0 predicted: 0xb6bd6979
[LVP] PREDICT instr_id: 5494 ip: 0x7e7ad3da4993 predicted: 0xd3dc6520
[LVP] PREDICT instr_id: 5497 ip: 0x7e7ad3da499d predicted: 0xd3dc6521
[LVP] PREDICT instr_id: 5502 ip: 0x7e7ad3da49b0 predicted: 0xb6bd6979
[LVP] PREDICT instr_id: 5512 ip: 0x7e7ad3da49b0 predicted: 0xb6bd6979
[LVP] PREDICT instr_id: 5519 ip: 0x7e7ad3da4993 predicted: 0xd3dc6630
[LVP] PREDICT instr_id: 5522 ip: 0x7e7ad3da499d predicted: 0xd3dc6631
[LVP] PREDICT instr_id: 5527 ip: 0x7e7ad3da49b0 predicted: 0xb6bd6979
[LVP] PREDICT instr_id: 5534 ip: 0x7e7ad3da4993 predicted: 0xd3dc66b8
[LVP] PREDICT instr_id: 5537 ip: 0x7e7ad3da499d predicted: 0xd3dc6741
[LVP] PREDICT instr_id: 5545 ip: 0x7e7ad3da4993 predicted: 0xd3dc6740
[LVP] PREDICT instr_id: 5548 ip: 0x7e7ad3da499d predicted: 0xd3dc6741
[LVP] PREDICT instr_id: 5556 ip: 0x7e7ad3da4993 predicted: 0xd3dc67c8
[LVP] PREDICT instr_id: 5559 ip: 0x7e7ad3da499d predicted: 0xd3dc67c9
[LVP] PREDICT instr_id: 5567 ip: 0x7e7ad3da4993 predicted: 0xd3dc6850
[LVP] PREDICT instr_id: 5570 ip: 0x7e7ad3da499d predicted: 0xd3dc6851
[LVP] PREDICT instr_id: 5578 ip: 0x7e7ad3da4993 predicted: 0xd3dc68d8
[LVP] PREDICT instr_id: 5581 ip: 0x7e7ad3da499d predicted: 0xd3dc68d9
[LVP] PREDICT instr_id: 5586 ip: 0x7e7ad3da49b0 predicted: 0xb6bd6979
[LVP] PREDICT instr_id: 5596 ip: 0x7e7ad3da49b0 predicted: 0xb6bd6979
[LVP] PREDICT instr_id: 5603 ip: 0x7e7ad3da4993 predicted: 0xd3dc69e8
[LVP] PREDICT instr_id: 5606 ip: 0x7e7ad3da499d predicted: 0xd3dc69e9
[LVP] PREDICT instr_id: 5614 ip: 0x7e7ad3da4993 predicted: 0xd3dc69e8
[LVP] PREDICT instr_id: 5617 ip: 0x7e7ad3da499d predicted: 0xd3dc69e9
[LVP] PREDICT instr_id: 5625 ip: 0x7e7ad3da4993 predicted: 0xd3dc69e8
[LVP] PREDICT instr_id: 5628 ip: 0x7e7ad3da499d predicted: 0xd3dc69e9
[LVP] PREDICT instr_id: 5636 ip: 0x7e7ad3da4993 predicted: 0xd3dc69e8
[LVP] PREDICT instr_id: 5639 ip: 0x7e7ad3da499d predicted: 0xd3dc69e9
[LVP] PREDICT instr_id: 5644 ip: 0x7e7ad3da49b0 predicted: 0xb6bd6979
[LVP] PREDICT instr_id: 5651 ip: 0x7e7ad3da4993 predicted: 0xd3dc69e8
[LVP] PREDICT instr_id: 5654 ip: 0x7e7ad3da499d predicted: 0xd3dc69e9
[LVP] PREDICT instr_id: 5662 ip: 0x7e7ad3da4993 predicted: 0xd3dc69e8
[LVP] PREDICT instr_id: 5665 ip: 0x7e7ad3da499d predicted: 0xd3dc69e9
[LVP] PREDICT instr_id: 5673 ip: 0x7e7ad3da4993 predicted: 0xd3dc69e8
[LVP] PREDICT instr_id: 5676 ip: 0x7e7ad3da499d predicted: 0xd3dc54a9
[LVP] PREDICT instr_id: 5681 ip: 0x7e7ad3da49b0 predicted: 0xb6bd6979
[LVP] PREDICT instr_id: 5688 ip: 0x7e7ad3da4993 predicted: 0xd3dc5530
[LVP] PREDICT instr_id: 5691 ip: 0x7e7ad3da499d predicted: 0xd3dc5531
[LVP] PREDICT instr_id: 5699 ip: 0x7e7ad3da4993 predicted: 0xd3dc5530
[LVP] PREDICT instr_id: 5702 ip: 0x7e7ad3da499d predicted: 0xd3dc5531
[LVP] PREDICT instr_id: 5710 ip: 0x7e7ad3da4993 predicted: 0xd3dc55b8
[LVP] PREDICT instr_id: 5713 ip: 0x7e7ad3da499d predicted: 0xd3dc55b9
[LVP] PREDICT instr_id: 5721 ip: 0x7e7ad3da4993 predicted: 0xd3dc5640
[LVP] PREDICT instr_id: 5724 ip: 0x7e7ad3da499d predicted: 0xd3dc5641
[LVP] PREDICT instr_id: 5732 ip: 0x7e7ad3da4993 predicted: 0xd3dc56c8
[LVP] PREDICT instr_id: 5735 ip: 0x7e7ad3da499d predicted: 0xd3dc56c9
[LVP] PREDICT instr_id: 5740 ip: 0x7e7ad3da49b0 predicted: 0xb6bd69b5
[LVP] PREDICT instr_id: 5747 ip: 0x7e7ad3da4993 predicted: 0xd3dc5750
[LVP] PREDICT instr_id: 5750 ip: 0x7e7ad3da499d predicted: 0xd3dc5751
[LVP] PREDICT instr_id: 5758 ip: 0x7e7ad3da4993 predicted: 0xd3dc57d8
[LVP] PREDICT instr_id: 5761 ip: 0x7e7ad3da499d predicted: 0xd3dc57d9
[LVP] PREDICT instr_id: 5766 ip: 0x7e7ad3da49b0 predicted: 0xb6bd69b5
[LVP] PREDICT instr_id: 5773 ip: 0x7e7ad3da4993 predicted: 0xd3dc5860
[LVP] PREDICT instr_id: 5776 ip: 0x7e7ad3da499d predicted: 0xd3dc58e9
[LVP] PREDICT instr_id: 5784 ip: 0x7e7ad3da4993 predicted: 0xd3dc58e8
[LVP] PREDICT instr_id: 5787 ip: 0x7e7ad3da499d predicted: 0xd3dc5971
[LVP] PREDICT instr_id: 5795 ip: 0x7e7ad3da4993 predicted: 0xd3dc5970
[LVP] PREDICT instr_id: 5798 ip: 0x7e7ad3da499d predicted: 0xd3dc59f9
[LVP] PREDICT instr_id: 5806 ip: 0x7e7ad3da4993 predicted: 0xd3dc59f8
[LVP] PREDICT instr_id: 5809 ip: 0x7e7ad3da499d predicted: 0xd3dc5a81
[LVP] PREDICT instr_id: 5817 ip: 0x7e7ad3da4993 predicted: 0xd3dc5a80
[LVP] PREDICT instr_id: 5820 ip: 0x7e7ad3da499d predicted: 0xd3dc5b09
[LVP] PREDICT instr_id: 5825 ip: 0x7e7ad3da49b0 predicted: 0xb6bd69b5
[LVP] PREDICT instr_id: 5832 ip: 0x7e7ad3da4993 predicted: 0xd3dc5b90
[LVP] PREDICT instr_id: 5835 ip: 0x7e7ad3da499d predicted: 0xd3dc5b91
[LVP] PREDICT instr_id: 5843 ip: 0x7e7ad3da4993 predicted: 0xd3dc5b90
[LVP] PREDICT instr_id: 5846 ip: 0x7e7ad3da499d predicted: 0xd3dc5b91
[LVP] PREDICT instr_id: 5591 ip: 0x7e7ad3da49bd predicted: 0xd3dc5b92
[LVP] PREDICT instr_id: 5856 ip: 0x7e7ad3da48f9 predicted: 0xb6bd56d0
[LVP] PREDICT instr_id: 5859 ip: 0x7e7ad3da4905 predicted: 0xb6bd69b5
[LVP] PREDICT instr_id: 5867 ip: 0x7e7ad3da4920 predicted: 0xb6bd69bc
[LVP] PREDICT instr_id: 5874 ip: 0x7e7ad3da4920 predicted: 0xb6bd69bc
[LVP] PREDICT instr_id: 5881 ip: 0x7e7ad3da4920 predicted: 0xb6bd69bc
[LVP] PREDICT instr_id: 5888 ip: 0x7e7ad3da4920 predicted: 0xb6bd69bc
[LVP] PREDICT instr_id: 5895 ip: 0x7e7ad3da4920 predicted: 0xb6bd69bc
[LVP] PREDICT instr_id: 5902 ip: 0x7e7ad3da4920 predicted: 0xb6bd69bc
[LVP] PREDICT instr_id: 5909 ip: 0x7e7ad3da4920 predicted: 0xb6bd69bc
[LVP] PREDICT instr_id: 5916 ip: 0x7e7ad3da4920 predicted: 0xb6bd69bc
[LVP] PREDICT instr_id: 5923 ip: 0x7e7ad3da4920 predicted: 0xb6bd69bc
[LVP] PREDICT instr_id: 5930 ip: 0x7e7ad3da4920 predicted: 0xb6bd69bc
[LVP] PREDICT instr_id: 5937 ip: 0x7e7ad3da4920 predicted: 0xb6bd69bc
[LVP] PREDICT instr_id: 5944 ip: 0x7e7ad3da4920 predicted: 0xb6bd69bc
[LVP] PREDICT instr_id: 5951 ip: 0x7e7ad3da4920 predicted: 0xb6bd69bc
[LVP] PREDICT instr_id: 5958 ip: 0x7e7ad3da4920 predicted: 0xb6bd69bc
[LVP] PREDICT instr_id: 5965 ip: 0x7e7ad3da4920 predicted: 0xb6bd69bc
[LVP] PREDICT instr_id: 5972 ip: 0x7e7ad3da4920 predicted: 0xb6bd69bc
[LVP] PREDICT instr_id: 5979 ip: 0x7e7ad3da4920 predicted: 0xb6bd69bc
[LVP] PREDICT instr_id: 5986 ip: 0x7e7ad3da4920 predicted: 0xb6bd69bc
[LVP] PREDICT instr_id: 5993 ip: 0x7e7ad3da4920 predicted: 0xb6bd69bc
[LVP] PREDICT instr_id: 6000 ip: 0x7e7ad3da4920 predicted: 0xb6bd69bc
[LVP] PREDICT instr_id: 6007 ip: 0x7e7ad3da4920 predicted: 0xb6bd69bc
[LVP] PREDICT instr_id: 6014 ip: 0x7e7ad3da4920 predicted: 0xb6bd69bc
[LVP] PREDICT instr_id: 6021 ip: 0x7e7ad3da4920 predicted: 0xb6bd69bc
[LVP] PREDICT instr_id: 6035 ip: 0x7e7ad3da4968 predicted: 0xb6bd69b5
[LVP] PREDICT instr_id: 6041 ip: 0x7e7ad3da4993 predicted: 0xd3dc6388
[LVP] PREDICT instr_id: 6044 ip: 0x7e7ad3da499d predicted: 0xd3dc6389
[LVP] PREDICT instr_id: 6052 ip: 0x7e7ad3da4993 predicted: 0xd3dc6410
[LVP] PREDICT instr_id: 6055 ip: 0x7e7ad3da499d predicted: 0xd3dc6411
[LVP] PREDICT instr_id: 6060 ip: 0x7e7ad3da49b0 predicted: 0xb6bd69b5
[LVP] PREDICT instr_id: 6067 ip: 0x7e7ad3da4993 predicted: 0xd3dc6498
[LVP] PREDICT instr_id: 6070 ip: 0x7e7ad3da499d predicted: 0xd3dc6499
[LVP] PREDICT instr_id: 6078 ip: 0x7e7ad3da4993 predicted: 0xd3dc6520
[LVP] PREDICT instr_id: 6081 ip: 0x7e7ad3da499d predicted: 0xd3dc6521
[LVP] PREDICT instr_id: 6089 ip: 0x7e7ad3da4993 predicted: 0xd3dc65a8
[LVP] PREDICT instr_id: 6092 ip: 0x7e7ad3da499d predicted: 0xd3dc65a9
[LVP] PREDICT instr_id: 6100 ip: 0x7e7ad3da4993 predicted: 0xd3dc6630
[LVP] PREDICT instr_id: 6103 ip: 0x7e7ad3da499d predicted: 0xd3dc6631
[LVP] PREDICT instr_id: 6111 ip: 0x7e7ad3da4993 predicted: 0xd3dc6630
[LVP] PREDICT instr_id: 6114 ip: 0x7e7ad3da499d predicted: 0xd3dc66b9
[LVP] PREDICT instr_id: 6122 ip: 0x7e7ad3da4993 predicted: 0xd3dc66b8
[LVP] PREDICT instr_id: 6125 ip: 0x7e7ad3da499d predicted: 0xd3dc6741
[LVP] PREDICT instr_id: 6133 ip: 0x7e7ad3da4993 predicted: 0xd3dc6740
[LVP] PREDICT instr_id: 6136 ip: 0x7e7ad3da499d predicted: 0xd3dc67c9
[LVP] PREDICT instr_id: 6144 ip: 0x7e7ad3da4993 predicted: 0xd3dc67c8
[LVP] PREDICT instr_id: 6147 ip: 0x7e7ad3da499d predicted: 0xd3dc6851
[LVP] PREDICT instr_id: 6155 ip: 0x7e7ad3da4993 predicted: 0xd3dc6850
[LVP] PREDICT instr_id: 6158 ip: 0x7e7ad3da499d predicted: 0xd3dc68d9
[LVP] PREDICT instr_id: 6166 ip: 0x7e7ad3da4993 predicted: 0xd3dc68d8
[LVP] PREDICT instr_id: 6169 ip: 0x7e7ad3da499d predicted: 0xd3dc68d9
[LVP] PREDICT instr_id: 6177 ip: 0x7e7ad3da4993 predicted: 0xd3dc6960
[LVP] PREDICT instr_id: 6180 ip: 0x7e7ad3da499d predicted: 0xd3dc6961
[LVP] PREDICT instr_id: 6185 ip: 0x7e7ad3da49b0 predicted: 0xb6bd69b5
[LVP] PREDICT instr_id: 6192 ip: 0x7e7ad3da4993 predicted: 0xd3dc69e8
[LVP] PREDICT instr_id: 6195 ip: 0x7e7ad3da499d predicted: 0xd3dc69e9
[LVP] PREDICT instr_id: 6200 ip: 0x7e7ad3da49b0 predicted: 0xb6bd69b5
[LVP] PREDICT instr_id: 6207 ip: 0x7e7ad3da4993 predicted: 0xd3dc69e8
[LVP] PREDICT instr_id: 6210 ip: 0x7e7ad3da499d predicted: 0xd3dc69e9
[LVP] PREDICT instr_id: 6215 ip: 0x7e7ad3da49b0 predicted: 0xb6bd69b5
[LVP] PREDICT instr_id: 6222 ip: 0x7e7ad3da4993 predicted: 0xd3dc69e8
[LVP] PREDICT instr_id: 6225 ip: 0x7e7ad3da499d predicted: 0xd3dc69e9
[LVP] PREDICT instr_id: 6233 ip: 0x7e7ad3da4993 predicted: 0xd3dc69e8
[LVP] PREDICT instr_id: 6236 ip: 0x7e7ad3da499d predicted: 0xd3dc69e9
[LVP] PREDICT instr_id: 6244 ip: 0x7e7ad3da4993 predicted: 0xd3dc69e8
[LVP] PREDICT instr_id: 6247 ip: 0x7e7ad3da499d predicted: 0xd3dc69e9
[LVP] PREDICT instr_id: 6255 ip: 0x7e7ad3da4993 predicted: 0xd3dc69e8
[LVP] PREDICT instr_id: 6258 ip: 0x7e7ad3da499d predicted: 0xd3dc69e9
[LVP] PREDICT instr_id: 6266 ip: 0x7e7ad3da4993 predicted: 0xd3dc69e8
[LVP] PREDICT instr_id: 6269 ip: 0x7e7ad3da499d predicted: 0xd3dc69e9
[LVP] PREDICT instr_id: 6274 ip: 0x7e7ad3da49b0 predicted: 0xb6bd69b5
[LVP] PREDICT instr_id: 6281 ip: 0x7e7ad3da4993 predicted: 0xd3dc69e8
[LVP] PREDICT instr_id: 6284 ip: 0x7e7ad3da499d predicted: 0xd3dc69e9
[LVP] PREDICT instr_id: 6292 ip: 0x7e7ad3da4993 predicted: 0xd3dc69e8
[LVP] PREDICT instr_id: 6295 ip: 0x7e7ad3da499d predicted: 0xd3dc69e9
[LVP] PREDICT instr_id: 6303 ip: 0x7e7ad3da4993 predicted: 0xd3dc69e8
[LVP] PREDICT instr_id: 6306 ip: 0x7e7ad3da499d predicted: 0xd3dc69e9
[LVP] PREDICT instr_id: 6314 ip: 0x7e7ad3da4993 predicted: 0xd3dc69e8
[LVP] PREDICT instr_id: 6317 ip: 0x7e7ad3da499d predicted: 0xd3dc69e9
[LVP] PREDICT instr_id: 6322 ip: 0x7e7ad3da49b0 predicted: 0xb6bd69b5
[LVP] PREDICT instr_id: 6329 ip: 0x7e7ad3da4993 predicted: 0xd3dc69e8
[LVP] PREDICT instr_id: 6332 ip: 0x7e7ad3da499d predicted: 0xd3dc69e9
[LVP] PREDICT instr_id: 6340 ip: 0x7e7ad3da4993 predicted: 0xd3dc69e8
[LVP] PREDICT instr_id: 6343 ip: 0x7e7ad3da499d predicted: 0xd3dc69e9
[LVP] PREDICT instr_id: 6351 ip: 0x7e7ad3da4993 predicted: 0xd3dc69e8
[LVP] PREDICT instr_id: 6354 ip: 0x7e7ad3da499d predicted: 0xd3dc69e9
[LVP] PREDICT instr_id: 6359 ip: 0x7e7ad3da49b0 predicted: 0xb6bd69b5
[LVP] PREDICT instr_id: 6366 ip: 0x7e7ad3da4993 predicted: 0xd3dc69e8
[LVP] PREDICT instr_id: 6369 ip: 0x7e7ad3da499d predicted: 0xd3dc69e9
[LVP] PREDICT instr_id: 6377 ip: 0x7e7ad3da4993 predicted: 0xd3dc69e8
[LVP] PREDICT instr_id: 6380 ip: 0x7e7ad3da499d predicted: 0xd3dc69e9
[LVP] PREDICT instr_id: 6388 ip: 0x7e7ad3da4993 predicted: 0xd3dc54a8
[LVP] PREDICT instr_id: 6391 ip: 0x7e7ad3da499d predicted: 0xd3dc54a9
[LVP] PREDICT instr_id: 6399 ip: 0x7e7ad3da4993 predicted: 0xd3dc5530
[LVP] PREDICT instr_id: 6402 ip: 0x7e7ad3da499d predicted: 0xd3dc5531
[LVP] PREDICT instr_id: 6410 ip: 0x7e7ad3da4993 predicted: 0xd3dc55b8
[LVP] PREDICT instr_id: 6413 ip: 0x7e7ad3da499d predicted: 0xd3dc55b9
[LVP] PREDICT instr_id: 6418 ip: 0x7e7ad3da49b0 predicted: 0xb6bd69c3
[LVP] PREDICT instr_id: 6425 ip: 0x7e7ad3da4993 predicted: 0xd3dc5640
[LVP] PREDICT instr_id: 6428 ip: 0x7e7ad3da499d predicted: 0xd3dc5641
[LVP] PREDICT instr_id: 6436 ip: 0x7e7ad3da4993 predicted: 0xd3dc56c8
[LVP] PREDICT instr_id: 6439 ip: 0x7e7ad3da499d predicted: 0xd3dc56c9
[LVP] PREDICT instr_id: 6444 ip: 0x7e7ad3da49b0 predicted: 0xb6bd69c3
[LVP] PREDICT instr_id: 6451 ip: 0x7e7ad3da4993 predicted: 0xd3dc5750
[LVP] PREDICT instr_id: 6454 ip: 0x7e7ad3da499d predicted: 0xd3dc57d9
[LVP] PREDICT instr_id: 6462 ip: 0x7e7ad3da4993 predicted: 0xd3dc5860
[LVP] PREDICT instr_id: 6465 ip: 0x7e7ad3da499d predicted: 0xd3dc5861
[LVP] PREDICT instr_id: 6473 ip: 0x7e7ad3da4993 predicted: 0xd3dc58e8
[LVP] PREDICT instr_id: 6476 ip: 0x7e7ad3da499d predicted: 0xd3dc58e9
[LVP] PREDICT instr_id: 6484 ip: 0x7e7ad3da4993 predicted: 0xd3dc58e8
[LVP] PREDICT instr_id: 6487 ip: 0x7e7ad3da499d predicted: 0xd3dc5971
[LVP] PREDICT instr_id: 6495 ip: 0x7e7ad3da4993 predicted: 0xd3dc5970
[LVP] PREDICT instr_id: 6498 ip: 0x7e7ad3da499d predicted: 0xd3dc59f9
[LVP] PREDICT instr_id: 6503 ip: 0x7e7ad3da49b0 predicted: 0xb6bd69c3
[LVP] PREDICT instr_id: 6510 ip: 0x7e7ad3da4993 predicted: 0xd3dc5a80
[LVP] PREDICT instr_id: 6513 ip: 0x7e7ad3da499d predicted: 0xd3dc5a81
[LVP] PREDICT instr_id: 6521 ip: 0x7e7ad3da4993 predicted: 0xd3dc5b08
[LVP] PREDICT instr_id: 6524 ip: 0x7e7ad3da499d predicted: 0xd3dc5b09
[LVP] PREDICT instr_id: 6534 ip: 0x7e7ad3da48f9 predicted: 0xb6bd56d8
[LVP] PREDICT instr_id: 6537 ip: 0x7e7ad3da4905 predicted: 0xb6bd69c3
[LVP] PREDICT instr_id: 6545 ip: 0x7e7ad3da4920 predicted: 0xb6bd69da
[LVP] PREDICT instr_id: 6552 ip: 0x7e7ad3da4920 predicted: 0xb6bd69da
[LVP] PREDICT instr_id: 6559 ip: 0x7e7ad3da4920 predicted: 0xb6bd69da
[LVP] PREDICT instr_id: 6566 ip: 0x7e7ad3da4920 predicted: 0xb6bd69da
[LVP] PREDICT instr_id: 6580 ip: 0x7e7ad3da4968 predicted: 0xb6bd69c3
[LVP] PREDICT instr_id: 6586 ip: 0x7e7ad3da4993 predicted: 0xd3dc5db0
[LVP] PREDICT instr_id: 6589 ip: 0x7e7ad3da499d predicted: 0xd3dc5db1
[LVP] PREDICT instr_id: 6597 ip: 0x7e7ad3da4993 predicted: 0xd3dc5e38
[LVP] PREDICT instr_id: 6600 ip: 0x7e7ad3da499d predicted: 0xd3dc5e39
[LVP] PREDICT instr_id: 6605 ip: 0x7e7ad3da49b0 predicted: 0xb6bd69c3
[LVP] PREDICT instr_id: 6612 ip: 0x7e7ad3da4993 predicted: 0xd3dc5ec0
[LVP] PREDICT instr_id: 6615 ip: 0x7e7ad3da499d predicted: 0xd3dc5ec1
[LVP] PREDICT instr_id: 6623 ip: 0x7e7ad3da4993 predicted: 0xd3dc5f48
[LVP] PREDICT instr_id: 6626 ip: 0x7e7ad3da499d predicted: 0xd3dc5f49
[LVP] PREDICT instr_id: 6634 ip: 0x7e7ad3da4993 predicted: 0xd3dc5fd0
[LVP] PREDICT instr_id: 6637 ip: 0x7e7ad3da499d predicted: 0xd3dc5fd1
[LVP] PREDICT instr_id: 6645 ip: 0x7e7ad3da4993 predicted: 0xd3dc6058
[LVP] PREDICT instr_id: 6648 ip: 0x7e7ad3da499d predicted: 0xd3dc6059
[LVP] PREDICT instr_id: 6656 ip: 0x7e7ad3da4993 predicted: 0xd3dc60e0
[LVP] PREDICT instr_id: 6659 ip: 0x7e7ad3da499d predicted: 0xd3dc60e1
[LVP] PREDICT instr_id: 6667 ip: 0x7e7ad3da4993 predicted: 0xd3dc60e0
[LVP] PREDICT instr_id: 6670 ip: 0x7e7ad3da499d predicted: 0xd3dc6169
[LVP] PREDICT instr_id: 6678 ip: 0x7e7ad3da4993 predicted: 0xd3dc6168
[LVP] PREDICT instr_id: 6681 ip: 0x7e7ad3da499d predicted: 0xd3dc61f1
[LVP] PREDICT instr_id: 6689 ip: 0x7e7ad3da4993 predicted: 0xd3dc61f0
[LVP] PREDICT instr_id: 6692 ip: 0x7e7ad3da499d predicted: 0xd3dc6279
[LVP] PREDICT instr_id: 6700 ip: 0x7e7ad3da4993 predicted: 0xd3dc6278
[LVP] PREDICT instr_id: 6703 ip: 0x7e7ad3da499d predicted: 0xd3dc6301
[LVP] PREDICT instr_id: 6711 ip: 0x7e7ad3da4993 predicted: 0xd3dc6300
[LVP] PREDICT instr_id: 6714 ip: 0x7e7ad3da499d predicted: 0xd3dc6301
[LVP] PREDICT instr_id: 6722 ip: 0x7e7ad3da4993 predicted: 0xd3dc6388
[LVP] PREDICT instr_id: 6725 ip: 0x7e7ad3da499d predicted: 0xd3dc6389
[LVP] PREDICT instr_id: 6730 ip: 0x7e7ad3da49b0 predicted: 0xb6bd69c3
[LVP] PREDICT instr_id: 6737 ip: 0x7e7ad3da4993 predicted: 0xd3dc6410
[LVP] PREDICT instr_id: 6740 ip: 0x7e7ad3da499d predicted: 0xd3dc6499
[LVP] PREDICT instr_id: 6745 ip: 0x7e7ad3da49b0 predicted: 0xb6bd69c3
[LVP] PREDICT instr_id: 6752 ip: 0x7e7ad3da4993 predicted: 0xd3dc6520
[LVP] PREDICT instr_id: 6755 ip: 0x7e7ad3da499d predicted: 0xd3dc6521
[LVP] PREDICT instr_id: 6760 ip: 0x7e7ad3da49b0 predicted: 0xb6bd69c3
[LVP] PREDICT instr_id: 6767 ip: 0x7e7ad3da4993 predicted: 0xd3dc65a8
[LVP] PREDICT instr_id: 6770 ip: 0x7e7ad3da499d predicted: 0xd3dc65a9
[LVP] PREDICT instr_id: 6778 ip: 0x7e7ad3da4993 predicted: 0xd3dc6630
[LVP] PREDICT instr_id: 6781 ip: 0x7e7ad3da499d predicted: 0xd3dc6631
[LVP] PREDICT instr_id: 6789 ip: 0x7e7ad3da4993 predicted: 0xd3dc6630
[LVP] PREDICT instr_id: 6792 ip: 0x7e7ad3da499d predicted: 0xd3dc6631
[LVP] PREDICT instr_id: 6800 ip: 0x7e7ad3da4993 predicted: 0xd3dc66b8
[LVP] PREDICT instr_id: 6803 ip: 0x7e7ad3da499d predicted: 0xd3dc6741
[LVP] PREDICT instr_id: 6811 ip: 0x7e7ad3da4993 predicted: 0xd3dc6740
[LVP] PREDICT instr_id: 6814 ip: 0x7e7ad3da499d predicted: 0xd3dc67c9
[LVP] PREDICT instr_id: 6819 ip: 0x7e7ad3da49b0 predicted: 0xb6bd69c3
[LVP] PREDICT instr_id: 6826 ip: 0x7e7ad3da4993 predicted: 0xd3dc6850
[LVP] PREDICT instr_id: 6829 ip: 0x7e7ad3da499d predicted: 0xd3dc6851
[LVP] PREDICT instr_id: 6837 ip: 0x7e7ad3da4993 predicted: 0xd3dc68d8
[LVP] PREDICT instr_id: 6840 ip: 0x7e7ad3da499d predicted: 0xd3dc68d9
[LVP] PREDICT instr_id: 6848 ip: 0x7e7ad3da4993 predicted: 0xd3dc6960
[LVP] PREDICT instr_id: 6851 ip: 0x7e7ad3da499d predicted: 0xd3dc6961
[LVP] PREDICT instr_id: 6859 ip: 0x7e7ad3da4993 predicted: 0xd3dc6960
[LVP] PREDICT instr_id: 6862 ip: 0x7e7ad3da499d predicted: 0xd3dc69e9
[LVP] PREDICT instr_id: 6867 ip: 0x7e7ad3da49b0 predicted: 0xb6bd69c3
[LVP] PREDICT instr_id: 6874 ip: 0x7e7ad3da4993 predicted: 0xd3dc69e8
[LVP] PREDICT instr_id: 6877 ip: 0x7e7ad3da499d predicted: 0xd3dc69e9
[LVP] PREDICT instr_id: 6885 ip: 0x7e7ad3da4993 predicted: 0xd3dc69e8
[LVP] PREDICT instr_id: 6888 ip: 0x7e7ad3da499d predicted: 0xd3dc69e9
[LVP] PREDICT instr_id: 6896 ip: 0x7e7ad3da4993 predicted: 0xd3dc69e8
[LVP] PREDICT instr_id: 6899 ip: 0x7e7ad3da499d predicted: 0xd3dc69e9
[LVP] PREDICT instr_id: 6904 ip: 0x7e7ad3da49b0 predicted: 0xb6bd69c3
[LVP] PREDICT instr_id: 6911 ip: 0x7e7ad3da4993 predicted: 0xd3dc69e8
[LVP] PREDICT instr_id: 6914 ip: 0x7e7ad3da499d predicted: 0xd3dc54a9
[LVP] PREDICT instr_id: 6922 ip: 0x7e7ad3da4993 predicted: 0xd3dc54a8
[LVP] PREDICT instr_id: 6925 ip: 0x7e7ad3da499d predicted: 0xd3dc54a9
[LVP] PREDICT instr_id: 6933 ip: 0x7e7ad3da4993 predicted: 0xd3dc5530
[LVP] PREDICT instr_id: 6936 ip: 0x7e7ad3da499d predicted: 0xd3dc5531
[LVP] PREDICT instr_id: 6944 ip: 0x7e7ad3da4993 predicted: 0xd3dc5530
[LVP] PREDICT instr_id: 6947 ip: 0x7e7ad3da499d predicted: 0xd3dc5531
[LVP] PREDICT instr_id: 6955 ip: 0x7e7ad3da4993 predicted: 0xd3dc55b8
[LVP] PREDICT instr_id: 6958 ip: 0x7e7ad3da499d predicted: 0xd3dc55b9
[LVP] PREDICT instr_id: 6963 ip: 0x7e7ad3da49b0 predicted: 0xb6bd6a28
[LVP] PREDICT instr_id: 6970 ip: 0x7e7ad3da4993 predicted: 0xd3dc5640
[LVP] PREDICT instr_id: 6973 ip: 0x7e7ad3da499d predicted: 0xd3dc5641
[LVP] PREDICT instr_id: 6981 ip: 0x7e7ad3da4993 predicted: 0xd3dc56c8
[LVP] PREDICT instr_id: 6984 ip: 0x7e7ad3da499d predicted: 0xd3dc56c9
[LVP] PREDICT instr_id: 6989 ip: 0x7e7ad3da49b0 predicted: 0xb6bd6a28
[LVP] PREDICT instr_id: 6996 ip: 0x7e7ad3da4993 predicted: 0xd3dc5750
[LVP] PREDICT instr_id: 6999 ip: 0x7e7ad3da499d predicted: 0xd3dc57d9
[LVP] PREDICT instr_id: 7007 ip: 0x7e7ad3da4993 predicted: 0xd3dc57d8
[LVP] PREDICT instr_id: 7010 ip: 0x7e7ad3da499d predicted: 0xd3dc5861
[LVP] PREDICT instr_id: 7018 ip: 0x7e7ad3da4993 predicted: 0xd3dc58e8
[LVP] PREDICT instr_id: 7021 ip: 0x7e7ad3da499d predicted: 0xd3dc58e9
[LVP] PREDICT instr_id: 7029 ip: 0x7e7ad3da4993 predicted: 0xd3dc5970
[LVP] PREDICT instr_id: 7032 ip: 0x7e7ad3da499d predicted: 0xd3dc5971
[LVP] PREDICT instr_id: 7040 ip: 0x7e7ad3da4993 predicted: 0xd3dc5970
[LVP] PREDICT instr_id: 7043 ip: 0x7e7ad3da499d predicted: 0xd3dc59f9
[LVP] PREDICT instr_id: 7048 ip: 0x7e7ad3da49b0 predicted: 0xb6bd6a28
[LVP] PREDICT instr_id: 7055 ip: 0x7e7ad3da4993 predicted: 0xd3dc5a80
[LVP] PREDICT instr_id: 7058 ip: 0x7e7ad3da499d predicted: 0xd3dc5a81
[LVP] PREDICT instr_id: 7066 ip: 0x7e7ad3da4993 predicted: 0xd3dc5b08
[LVP] PREDICT instr_id: 7069 ip: 0x7e7ad3da499d predicted: 0xd3dc5b09
[LVP] PREDICT instr_id: 7079 ip: 0x7e7ad3da48f9 predicted: 0xb6bd56e0
[LVP] PREDICT instr_id: 7082 ip: 0x7e7ad3da4905 predicted: 0xb6bd6a28
[LVP] PREDICT instr_id: 7090 ip: 0x7e7ad3da4920 predicted: 0xb6bd6a2c
[LVP] PREDICT instr_id: 7097 ip: 0x7e7ad3da4920 predicted: 0xb6bd6a2c
[LVP] PREDICT instr_id: 7104 ip: 0x7e7ad3da4920 predicted: 0xb6bd6a2c
[LVP] PREDICT instr_id: 7111 ip: 0x7e7ad3da4920 predicted: 0xb6bd6a2c
[LVP] PREDICT instr_id: 7125 ip: 0x7e7ad3da4968 predicted: 0xb6bd6a28
[LVP] PREDICT instr_id: 7131 ip: 0x7e7ad3da4993 predicted: 0xd3dc5db0
[LVP] PREDICT instr_id: 7134 ip: 0x7e7ad3da499d predicted: 0xd3dc5db1
[LVP] PREDICT instr_id: 7142 ip: 0x7e7ad3da4993 predicted: 0xd3dc5e38
[LVP] PREDICT instr_id: 7145 ip: 0x7e7ad3da499d predicted: 0xd3dc5e39
[LVP] PREDICT instr_id: 7150 ip: 0x7e7ad3da49b0 predicted: 0xb6bd6a28
[LVP] PREDICT instr_id: 7157 ip: 0x7e7ad3da4993 predicted: 0xd3dc5ec0
[LVP] PREDICT instr_id: 7160 ip: 0x7e7ad3da499d predicted: 0xd3dc5ec1
[LVP] PREDICT instr_id: 7168 ip: 0x7e7ad3da4993 predicted: 0xd3dc5f48
[LVP] PREDICT instr_id: 7171 ip: 0x7e7ad3da499d predicted: 0xd3dc5f49
[LVP] PREDICT instr_id: 7179 ip: 0x7e7ad3da4993 predicted: 0xd3dc5fd0
[LVP] PREDICT instr_id: 7182 ip: 0x7e7ad3da499d predicted: 0xd3dc5fd1
[LVP] PREDICT instr_id: 7190 ip: 0x7e7ad3da4993 predicted: 0xd3dc6058
[LVP] PREDICT instr_id: 7193 ip: 0x7e7ad3da499d predicted: 0xd3dc6059
[LVP] PREDICT instr_id: 7201 ip: 0x7e7ad3da4993 predicted: 0xd3dc60e0
[LVP] PREDICT instr_id: 7204 ip: 0x7e7ad3da499d predicted: 0xd3dc60e1
[LVP] PREDICT instr_id: 7212 ip: 0x7e7ad3da4993 predicted: 0xd3dc6168
[LVP] PREDICT instr_id: 7215 ip: 0x7e7ad3da499d predicted: 0xd3dc6169
[LVP] PREDICT instr_id: 7223 ip: 0x7e7ad3da4993 predicted: 0xd3dc6168
[LVP] PREDICT instr_id: 7226 ip: 0x7e7ad3da499d predicted: 0xd3dc61f1
[LVP] PREDICT instr_id: 7234 ip: 0x7e7ad3da4993 predicted: 0xd3dc61f0
[LVP] PREDICT instr_id: 7237 ip: 0x7e7ad3da499d predicted: 0xd3dc6279
[LVP] PREDICT instr_id: 7245 ip: 0x7e7ad3da4993 predicted: 0xd3dc6278
[...]
[LVP] PREDICT instr_id: 199664 ip: 0x7e7ad3d9eae7 predicted: 0xb6bd51f8
[LVP] FORWARD predicted value instr_id: 199615 ip: 0x7e7ad3d99809
[LVP] FORWARD predicted value instr_id: 199616 ip: 0x7e7ad3d9980a
[LVP] FORWARD predicted value instr_id: 199617 ip: 0x7e7ad3d9980c
[LVP] PREDICT instr_id: 199670 ip: 0x7e7ad3d9eb07 predicted: 0xb6bd5180
[LVP] PREDICT instr_id: 199671 ip: 0x7e7ad3d9eb08 predicted: 0xb6bd5188
[LVP] FORWARD predicted value instr_id: 199618 ip: 0x7e7ad3d9980e
[LVP] FORWARD predicted value instr_id: 199619 ip: 0x7e7ad3d99810
[LVP] FORWARD predicted value instr_id: 199620 ip: 0x7e7ad3d99812
[LVP] PREDICT instr_id: 199675 ip: 0x7e7ad3d9eb11 predicted: 0xbe609aae
[LVP] PREDICT instr_id: 199676 ip: 0x7e7ad3d9eb15 predicted: 0xbe609aac
[LVP] FORWARD predicted value instr_id: 199621 ip: 0x7e7ad3d99813
[LVP] PREDICT instr_id: 199679 ip: 0x7e7ad3d9eb23 predicted: 0xbee20160
[LVP] PREDICT instr_id: 199681 ip: 0x7e7ad3d9eb29 predicted: 0xbe609ab0
[LVP] FORWARD predicted value instr_id: 199625 ip: 0x7e7ad3d9a204
[LVP] PREDICT instr_id: 199687 ip: 0x7e7ad3d9eb47 predicted: 0xd3dbb138
[LVP] FORWARD predicted value instr_id: 199628 ip: 0x7e7ad3d9a20e
[LVP] PREDICT instr_id: 199690 ip: 0x7e7ad3d9eb74 predicted: 0xb6bd5220
[LVP] PREDICT instr_id: 199692 ip: 0x7e7ad3d9eb7e predicted: 0xbe626710
[LVP] FORWARD predicted value instr_id: 199634 ip: 0x7e7ad3d9a226
[LVP] PREDICT instr_id: 199695 ip: 0x7e7ad3d9eb8b predicted: 0xb6bd5228
[LVP] FORWARD predicted value instr_id: 199640 ip: 0x7e7ad3d9a237
[LVP] PREDICT instr_id: 199699 ip: 0x7e7ad3d9e9a0 predicted: 0xbe626728
[LVP] PREDICT instr_id: 199700 ip: 0x7e7ad3d9e9a4 predicted: 0xb6bd5218
[LVP] PREDICT instr_id: 199701 ip: 0x7e7ad3d9e9ab predicted: 0xb6bd5210
[LVP] PREDICT instr_id: 199702 ip: 0x7e7ad3d9e9b2 predicted: 0xb6bd5208
[LVP] PREDICT instr_id: 199704 ip: 0x7e7ad3d9e9bc predicted: 0xbe626720
[LVP] FORWARD predicted value instr_id: 199648 ip: 0x7e7ad3d9a257
[LVP] PREDICT instr_id: 199708 ip: 0x7e7ad3d9e9cd predicted: 0xbe625274
[LVP] FORWARD predicted value instr_id: 199651 ip: 0x7e7ad3d9a266
[LVP] PREDICT instr_id: 199714 ip: 0x7e7ad3d9e9e6 predicted: 0xbee20480
[LVP] FORWARD predicted value instr_id: 199656 ip: 0x7e7ad3d9a27e
[LVP] FORWARD predicted value instr_id: 199657 ip: 0x7e7ad3d9a27f
[LVP] FORWARD predicted value instr_id: 199658 ip: 0x7e7ad3d9a281
[LVP] FORWARD predicted value instr_id: 199659 ip: 0x7e7ad3d9a283
[LVP] PREDICT instr_id: 199725 ip: 0x7e7ad3d9ea1c predicted: 0xbe612914
[LVP] FORWARD predicted value instr_id: 199660 ip: 0x7e7ad3d9a285
[LVP] FORWARD predicted value instr_id: 199661 ip: 0x7e7ad3d9a287
[LVP] FORWARD predicted value instr_id: 199662 ip: 0x7e7ad3d9a288
[LVP] PREDICT instr_id: 199729 ip: 0x7e7ad3d9ea2e predicted: 0xbe612915
[LVP] FORWARD predicted value instr_id: 199664 ip: 0x7e7ad3d9eae7
[LVP] PREDICT instr_id: 199734 ip: 0x7e7ad3d9ea43 predicted: 0xbee205a0
[LVP] FORWARD predicted value instr_id: 199670 ip: 0x7e7ad3d9eb07
[LVP] FORWARD predicted value instr_id: 199671 ip: 0x7e7ad3d9eb08
[LVP] FORWARD predicted value instr_id: 199675 ip: 0x7e7ad3d9eb11
[LVP] PREDICT instr_id: 199747 ip: 0x7e7ad3d9ea80 predicted: 0xbee201c8
[LVP] FORWARD predicted value instr_id: 199676 ip: 0x7e7ad3d9eb15
[LVP] FORWARD predicted value instr_id: 199679 ip: 0x7e7ad3d9eb23
[LVP] PREDICT instr_id: 199748 ip: 0x7e7ad3d9ea84 predicted: 0xbe612910
[LVP] PREDICT instr_id: 199751 ip: 0x7e7ad3d9ea96 predicted: 0xbe8029a8
[LVP] FORWARD predicted value instr_id: 199681 ip: 0x7e7ad3d9eb29
[LVP] PREDICT instr_id: 199753 ip: 0x7e7ad3d9ea9c predicted: 0xbee204b6
[LVP] FORWARD predicted value instr_id: 199687 ip: 0x7e7ad3d9eb47
[LVP] FORWARD predicted value instr_id: 199690 ip: 0x7e7ad3d9eb74
[LVP] PREDICT instr_id: 199760 ip: 0x7e7ad3d9eab8 predicted: 0xbee207f8
[LVP] FORWARD predicted value instr_id: 199692 ip: 0x7e7ad3d9eb7e
[LVP] FORWARD predicted value instr_id: 199695 ip: 0x7e7ad3d9eb8b
[LVP] PREDICT instr_id: 199764 ip: 0x7e7ad3d9eac9 predicted: 0xb6bd5200
[LVP] PREDICT instr_id: 199767 ip: 0x7e7ad3d9ead5 predicted: 0xb6bd51e8
[LVP] FORWARD predicted value instr_id: 199699 ip: 0x7e7ad3d9e9a0
[LVP] FORWARD predicted value instr_id: 199700 ip: 0x7e7ad3d9e9a4
[LVP] FORWARD predicted value instr_id: 199701 ip: 0x7e7ad3d9e9ab
[LVP] FORWARD predicted value instr_id: 199702 ip: 0x7e7ad3d9e9b2
[LVP] FORWARD predicted value instr_id: 199704 ip: 0x7e7ad3d9e9bc
[LVP] FORWARD predicted value instr_id: 199708 ip: 0x7e7ad3d9e9cd
[LVP] PREDICT instr_id: 199785 ip: 0x7e7ad3d9a103 predicted: 0xbe61dd35
[LVP] PREDICT instr_id: 199791 ip: 0x7e7ad3d9a120 predicted: 0xbe61dd3a
[LVP] FORWARD predicted value instr_id: 199714 ip: 0x7e7ad3d9e9e6
[LVP] FORWARD predicted value instr_id: 199725 ip: 0x7e7ad3d9ea1c
[LVP] PREDICT instr_id: 199800 ip: 0x7e7ad3d9a141 predicted: 0xbe61dd3b
[LVP] PREDICT instr_id: 199803 ip: 0x7e7ad3d9a120 predicted: 0xbe61dd3a
[LVP] FORWARD predicted value instr_id: 199729 ip: 0x7e7ad3d9ea2e
[LVP] PREDICT instr_id: 199812 ip: 0x7e7ad3d9a141 predicted: 0xbe61dd3b
[LVP] FORWARD predicted value instr_id: 199734 ip: 0x7e7ad3d9ea43
[LVP] PREDICT instr_id: 199815 ip: 0x7e7ad3d9a120 predicted: 0xbe61dd3a
[LVP] PREDICT instr_id: 199824 ip: 0x7e7ad3d9a141 predicted: 0xbe61dd3b
[LVP] PREDICT instr_id: 199827 ip: 0x7e7ad3d9a120 predicted: 0xbe61dd3a
[LVP] FORWARD predicted value instr_id: 199747 ip: 0x7e7ad3d9ea80
[LVP] PREDICT instr_id: 199836 ip: 0x7e7ad3d9a141 predicted: 0xbe61dd3b
[LVP] PREDICT instr_id: 199839 ip: 0x7e7ad3d9a120 predicted: 0xbe61dd3a
[LVP] PREDICT instr_id: 199848 ip: 0x7e7ad3d9a141 predicted: 0xbe61dd3b
[LVP] PREDICT instr_id: 199851 ip: 0x7e7ad3d9a120 predicted: 0xbe61dd3a
[LVP] FORWARD predicted value instr_id: 199748 ip: 0x7e7ad3d9ea84
[LVP] FORWARD predicted value instr_id: 199751 ip: 0x7e7ad3d9ea96
[LVP] PREDICT instr_id: 199860 ip: 0x7e7ad3d9a141 predicted: 0xbe61dd3b
[LVP] FORWARD predicted value instr_id: 199753 ip: 0x7e7ad3d9ea9c
[LVP] PREDICT instr_id: 199863 ip: 0x7e7ad3d9a120 predicted: 0xbe61dd3a
[LVP] PREDICT instr_id: 199872 ip: 0x7e7ad3d9a141 predicted: 0xbe61dd3b
[LVP] PREDICT instr_id: 199875 ip: 0x7e7ad3d9a120 predicted: 0xbe61dd3a
[LVP] FORWARD predicted value instr_id: 199760 ip: 0x7e7ad3d9eab8
[LVP] FORWARD predicted value instr_id: 199764 ip: 0x7e7ad3d9eac9
[LVP] PREDICT instr_id: 199884 ip: 0x7e7ad3d9a141 predicted: 0xbe61dd3b
[LVP] PREDICT instr_id: 199887 ip: 0x7e7ad3d9a120 predicted: 0xbe61dd3a
[LVP] FORWARD predicted value instr_id: 199767 ip: 0x7e7ad3d9ead5
[LVP] FORWARD predicted value instr_id: 199785 ip: 0x7e7ad3d9a103
[LVP] FORWARD predicted value instr_id: 199791 ip: 0x7e7ad3d9a120
[LVP] FORWARD predicted value instr_id: 199800 ip: 0x7e7ad3d9a141
[LVP] FORWARD predicted value instr_id: 199803 ip: 0x7e7ad3d9a120
[LVP] FORWARD predicted value instr_id: 199812 ip: 0x7e7ad3d9a141
[LVP] FORWARD predicted value instr_id: 199815 ip: 0x7e7ad3d9a120
[LVP] FORWARD predicted value instr_id: 199824 ip: 0x7e7ad3d9a141
[LVP] FORWARD predicted value instr_id: 199827 ip: 0x7e7ad3d9a120
[LVP] FORWARD predicted value instr_id: 199836 ip: 0x7e7ad3d9a141
[LVP] FORWARD predicted value instr_id: 199839 ip: 0x7e7ad3d9a120
[LVP] FORWARD predicted value instr_id: 199848 ip: 0x7e7ad3d9a141
[LVP] FORWARD predicted value instr_id: 199851 ip: 0x7e7ad3d9a120
[LVP] FORWARD predicted value instr_id: 199860 ip: 0x7e7ad3d9a141
[LVP] FORWARD predicted value instr_id: 199863 ip: 0x7e7ad3d9a120
[LVP] FORWARD predicted value instr_id: 199872 ip: 0x7e7ad3d9a141
[LVP] FORWARD predicted value instr_id: 199875 ip: 0x7e7ad3d9a120
[LVP] FORWARD predicted value instr_id: 199884 ip: 0x7e7ad3d9a141
[LVP] FORWARD predicted value instr_id: 199887 ip: 0x7e7ad3d9a120
[LVP] PREDICT instr_id: 199897 ip: 0x7e7ad3d9a151 predicted: 0xd3dc7a98
[LVP] FORWARD predicted value instr_id: 199897 ip: 0x7e7ad3d9a151
[LVP] PREDICT instr_id: 199902 ip: 0x7e7ad3d9a166 predicted: 0xb6bd5180
[LVP] PREDICT instr_id: 199904 ip: 0x7e7ad3d9a170 predicted: 0xb6bd50d8
[LVP] FORWARD predicted value instr_id: 199902 ip: 0x7e7ad3d9a166
[LVP] PREDICT instr_id: 199905 ip: 0x7e7ad3d9a177 predicted: 0xb6bd5188
[LVP] PREDICT instr_id: 199906 ip: 0x7e7ad3d9a17c predicted: 0xbee20500
[LVP] FORWARD predicted value instr_id: 199904 ip: 0x7e7ad3d9a170
[LVP] FORWARD predicted value instr_id: 199905 ip: 0x7e7ad3d9a177
[LVP] FORWARD predicted value instr_id: 199906 ip: 0x7e7ad3d9a17c
[LVP] PREDICT instr_id: 199922 ip: 0x7e7ad3d9a1d0 predicted: 0xb6bd50e8
[LVP] PREDICT instr_id: 199923 ip: 0x7e7ad3d9a1d6 predicted: 0xb6bd5238
[LVP] PREDICT instr_id: 199924 ip: 0x7e7ad3d9a1d9 predicted: 0xb6bd50f0
[LVP] PREDICT instr_id: 199927 ip: 0x7e7ad3d9a1e4 predicted: 0xb6bd5180
[LVP] PREDICT instr_id: 199929 ip: 0x7e7ad3d9a1ea predicted: 0xb6bd5188
[LVP] FORWARD predicted value instr_id: 199922 ip: 0x7e7ad3d9a1d0
[LVP] FORWARD predicted value instr_id: 199923 ip: 0x7e7ad3d9a1d6
[LVP] FORWARD predicted value instr_id: 199927 ip: 0x7e7ad3d9a1e4
[LVP] PREDICT instr_id: 199945 ip: 0x7e7ad3d99548 predicted: 0xd3dc85e0
[LVP] PREDICT instr_id: 199953 ip: 0x7e7ad3d99565 predicted: 0xd3dc85d8
[LVP] FORWARD predicted value instr_id: 199945 ip: 0x7e7ad3d99548
[LVP] PREDICT instr_id: 199965 ip: 0x7e7ad3d9961d predicted: 0xbee206c8
[LVP] PREDICT instr_id: 199966 ip: 0x7e7ad3d99622 predicted: 0xbee20188
[LVP] FORWARD predicted value instr_id: 199953 ip: 0x7e7ad3d99565
[LVP] PREDICT instr_id: 199971 ip: 0x7e7ad3d99639 predicted: 0xbee204b6
[LVP] PREDICT instr_id: 199973 ip: 0x7e7ad3d99651 predicted: 0xd3dc6aa0
[LVP] PREDICT instr_id: 199975 ip: 0x7e7ad3d99590 predicted: 0xbee2048c
[LVP] PREDICT instr_id: 199978 ip: 0x7e7ad3d9959a predicted: 0xbee201d0
[LVP] FORWARD predicted value instr_id: 199965 ip: 0x7e7ad3d9961d
[LVP] PREDICT instr_id: 199981 ip: 0x7e7ad3d995ad predicted: 0xbe8029b8
[LVP] PREDICT instr_id: 199983 ip: 0x7e7ad3d995b3 predicted: 0xbee204b6
[LVP] FORWARD predicted value instr_id: 199966 ip: 0x7e7ad3d99622
[LVP] FORWARD predicted value instr_id: 199971 ip: 0x7e7ad3d99639
[LVP] PREDICT instr_id: 199985 ip: 0x7e7ad3d995c2 predicted: 0xbee201c8
[LVP] PREDICT instr_id: 199986 ip: 0x7e7ad3d995c6 predicted: 0xbe8029a8
[LVP] PREDICT instr_id: 199987 ip: 0x7e7ad3d995ca predicted: 0xbee20498
[LVP] FORWARD predicted value instr_id: 199973 ip: 0x7e7ad3d99651
[LVP] PREDICT instr_id: 199992 ip: 0x7e7ad3d995e0 predicted: 0xbee20490
[LVP] PREDICT instr_id: 199993 ip: 0x7e7ad3d995e6 predicted: 0xbe6048b8
[LVP] PREDICT instr_id: 199994 ip: 0x7e7ad3d995ea predicted: 0xbee20494
[LVP] FORWARD predicted value instr_id: 199975 ip: 0x7e7ad3d99590
[LVP] FORWARD predicted value instr_id: 199978 ip: 0x7e7ad3d9959a
[LVP] FORWARD predicted value instr_id: 199981 ip: 0x7e7ad3d995ad
[LVP] FORWARD predicted value instr_id: 199983 ip: 0x7e7ad3d995b3
[LVP] FORWARD predicted value instr_id: 199985 ip: 0x7e7ad3d995c2
[LVP] FORWARD predicted value instr_id: 199986 ip: 0x7e7ad3d995c6
[LVP] FORWARD predicted value instr_id: 199987 ip: 0x7e7ad3d995ca
[LVP] FORWARD predicted value instr_id: 199992 ip: 0x7e7ad3d995e0
[LVP] FORWARD predicted value instr_id: 199993 ip: 0x7e7ad3d995e6
[LVP] FORWARD predicted value instr_id: 199994 ip: 0x7e7ad3d995ea
[LVP] PREDICT instr_id: 200008 ip: 0x7e7ad3d9961d predicted: 0xbee206c0
[LVP] PREDICT instr_id: 200009 ip: 0x7e7ad3d99622 predicted: 0xd3dc8308
[LVP] FORWARD predicted value instr_id: 200008 ip: 0x7e7ad3d9961d
[LVP] FORWARD predicted value instr_id: 200009 ip: 0x7e7ad3d99622
[LVP] PREDICT instr_id: 200014 ip: 0x7e7ad3d99639 predicted: 0xd3dc8636
[LVP] FORWARD predicted value instr_id: 200014 ip: 0x7e7ad3d99639
[LVP] PREDICT instr_id: 200016 ip: 0x7e7ad3d99651 predicted: 0xd3dc6aa0
[LVP] FORWARD predicted value instr_id: 200016 ip: 0x7e7ad3d99651
[LVP] PREDICT instr_id: 200018 ip: 0x7e7ad3d99590 predicted: 0xd3dc860c
[LVP] PREDICT instr_id: 200021 ip: 0x7e7ad3d9959a predicted: 0xbee201d0
[LVP] FORWARD predicted value instr_id: 200018 ip: 0x7e7ad3d99590
[LVP] PREDICT instr_id: 200024 ip: 0x7e7ad3d995ad predicted: 0xbe8029b8
[LVP] PREDICT instr_id: 200026 ip: 0x7e7ad3d995b3 predicted: 0xd3dc8636
[LVP] PREDICT instr_id: 200028 ip: 0x7e7ad3d995c2 predicted: 0xbee201c8
[LVP] PREDICT instr_id: 200029 ip: 0x7e7ad3d995c6 predicted: 0xbe8029a8
[LVP] PREDICT instr_id: 200030 ip: 0x7e7ad3d995ca predicted: 0xd3dc8618
[LVP] PREDICT instr_id: 200034 ip: 0x7e7ad3d995dd predicted: 0xb6bd5010
[LVP] PREDICT instr_id: 200035 ip: 0x7e7ad3d995e0 predicted: 0xd3dc8610
[LVP] PREDICT instr_id: 200036 ip: 0x7e7ad3d995e6 predicted: 0xbe6048b8
[LVP] PREDICT instr_id: 200037 ip: 0x7e7ad3d995ea predicted: 0xd3dc8614
[LVP] PREDICT instr_id: 200038 ip: 0x7e7ad3d995f0 predicted: 0xb6bd5020
[LVP] FORWARD predicted value instr_id: 200021 ip: 0x7e7ad3d9959a
[LVP] FORWARD predicted value instr_id: 200024 ip: 0x7e7ad3d995ad
[LVP] PREDICT instr_id: 200043 ip: 0x7e7ad3d995fd predicted: 0xb6bd5008
[LVP] FORWARD predicted value instr_id: 200026 ip: 0x7e7ad3d995b3
[LVP] FORWARD predicted value instr_id: 200028 ip: 0x7e7ad3d995c2
[LVP] FORWARD predicted value instr_id: 200029 ip: 0x7e7ad3d995c6
[LVP] FORWARD predicted value instr_id: 200030 ip: 0x7e7ad3d995ca
[LVP] FORWARD predicted value instr_id: 200034 ip: 0x7e7ad3d995dd
[LVP] FORWARD predicted value instr_id: 200035 ip: 0x7e7ad3d995e0
[LVP] FORWARD predicted value instr_id: 200036 ip: 0x7e7ad3d995e6
[LVP] FORWARD predicted value instr_id: 200037 ip: 0x7e7ad3d995ea
[LVP] FORWARD predicted value instr_id: 200038 ip: 0x7e7ad3d995f0


Last Value Predictor Stats:
  Predictor Size: 1024 entries
  Current Occupancy: 1024
  Total Evictions: 3357
  Early Executions: 16850
  Total predictions: 33656
  Correct: 10419
  Incorrect: 26570
  Squashes: 0
  Accuracy: 30.96%
Simulation finished CPU 0 instructions: 100001 cycles: 208292 cumulative IPC: 0.4801 (Simulation time: 00 hr 00 min 01 sec)
Simulation complete CPU 0 instructions: 100001 cycles: 208292 cumulative IPC: 0.4801 (Simulation time: 00 hr 00 min 01 sec)

ChampSim completed all CPUs

=== Simulation ===
CPU 0 runs tracer/pin/microbench.trace

Region of Interest Statistics

CPU 0 cumulative IPC: 0.4801 instructions: 100001 cycles: 208292
CPU 0 Branch Prediction Accuracy: 87.49% MPKI: 27.95 Average ROB Occupancy at Mispredict: 15.86
Branch type MPKI
BRANCH_DIRECT_JUMP: 0.98
BRANCH_INDIRECT: 0.48
BRANCH_CONDITIONAL: 22.78
BRANCH_DIRECT_CALL: 1.25
BRANCH_INDIRECT_CALL: 0.63
BRANCH_RETURN: 1.83

cpu0->cpu0_STLB TOTAL        ACCESS:        121 HIT:         58 MISS:         63 MSHR_MERGE:          0
cpu0->cpu0_STLB LOAD         ACCESS:        121 HIT:         58 MISS:         63 MSHR_MERGE:          0
cpu0->cpu0_STLB RFO          ACCESS:          0 HIT:          0 MISS:          0 MSHR_MERGE:          0
cpu0->cpu0_STLB PREFETCH     ACCESS:          0 HIT:          0 MISS:          0 MSHR_MERGE:          0
cpu0->cpu0_STLB WRITE        ACCESS:          0 HIT:          0 MISS:          0 MSHR_MERGE:          0
cpu0->cpu0_STLB TRANSLATION  ACCESS:          0 HIT:          0 MISS:          0 MSHR_MERGE:          0
cpu0->cpu0_STLB PREFETCH REQUESTED:          0 ISSUED:          0 USEFUL:          0 USELESS:          0
cpu0->cpu0_STLB AVERAGE MISS LATENCY: 817.9 cycles
cpu0->cpu0_L2C TOTAL        ACCESS:       2777 HIT:       1896 MISS:        881 MSHR_MERGE:          0
cpu0->cpu0_L2C LOAD         ACCESS:       2050 HIT:       1356 MISS:        694 MSHR_MERGE:          0
cpu0->cpu0_L2C RFO          ACCESS:        253 HIT:        180 MISS:         73 MSHR_MERGE:          0
cpu0->cpu0_L2C PREFETCH     ACCESS:          0 HIT:          0 MISS:          0 MSHR_MERGE:          0
cpu0->cpu0_L2C WRITE        ACCESS:        358 HIT:        358 MISS:          0 MSHR_MERGE:          0
cpu0->cpu0_L2C TRANSLATION  ACCESS:        116 HIT:          2 MISS:        114 MSHR_MERGE:          0
cpu0->cpu0_L2C PREFETCH REQUESTED:          0 ISSUED:          0 USEFUL:          0 USELESS:          0
cpu0->cpu0_L2C AVERAGE MISS LATENCY: 198.6 cycles
cpu0->cpu0_L1I TOTAL        ACCESS:       4992 HIT:       3333 MISS:       1659 MSHR_MERGE:        402
cpu0->cpu0_L1I LOAD         ACCESS:       4992 HIT:       3333 MISS:       1659 MSHR_MERGE:        402
cpu0->cpu0_L1I RFO          ACCESS:          0 HIT:          0 MISS:          0 MSHR_MERGE:          0
cpu0->cpu0_L1I PREFETCH     ACCESS:          0 HIT:          0 MISS:          0 MSHR_MERGE:          0
cpu0->cpu0_L1I WRITE        ACCESS:          0 HIT:          0 MISS:          0 MSHR_MERGE:          0
cpu0->cpu0_L1I TRANSLATION  ACCESS:          0 HIT:          0 MISS:          0 MSHR_MERGE:          0
cpu0->cpu0_L1I PREFETCH REQUESTED:          0 ISSUED:          0 USEFUL:          0 USELESS:          0
cpu0->cpu0_L1I AVERAGE MISS LATENCY: 92.17 cycles
cpu0->cpu0_L1D TOTAL        ACCESS:      24868 HIT:      22083 MISS:       2785 MSHR_MERGE:       1623
cpu0->cpu0_L1D LOAD         ACCESS:      15528 HIT:      13797 MISS:       1731 MSHR_MERGE:        938
cpu0->cpu0_L1D RFO          ACCESS:          0 HIT:          0 MISS:          0 MSHR_MERGE:          0
cpu0->cpu0_L1D PREFETCH     ACCESS:          0 HIT:          0 MISS:          0 MSHR_MERGE:          0
cpu0->cpu0_L1D WRITE        ACCESS:       9208 HIT:       8271 MISS:        937 MSHR_MERGE:        684
cpu0->cpu0_L1D TRANSLATION  ACCESS:        132 HIT:         15 MISS:        117 MSHR_MERGE:          1
cpu0->cpu0_L1D PREFETCH REQUESTED:          0 ISSUED:          0 USEFUL:          0 USELESS:          0
cpu0->cpu0_L1D AVERAGE MISS LATENCY: 67.38 cycles
cpu0->cpu0_ITLB TOTAL        ACCESS:       4320 HIT:       4186 MISS:        134 MSHR_MERGE:         63
cpu0->cpu0_ITLB LOAD         ACCESS:       4320 HIT:       4186 MISS:        134 MSHR_MERGE:         63
cpu0->cpu0_ITLB RFO          ACCESS:          0 HIT:          0 MISS:          0 MSHR_MERGE:          0
cpu0->cpu0_ITLB PREFETCH     ACCESS:          0 HIT:          0 MISS:          0 MSHR_MERGE:          0
cpu0->cpu0_ITLB WRITE        ACCESS:          0 HIT:          0 MISS:          0 MSHR_MERGE:          0
cpu0->cpu0_ITLB TRANSLATION  ACCESS:          0 HIT:          0 MISS:          0 MSHR_MERGE:          0
cpu0->cpu0_ITLB PREFETCH REQUESTED:          0 ISSUED:          0 USEFUL:          0 USELESS:          0
cpu0->cpu0_ITLB AVERAGE MISS LATENCY: 604.2 cycles
cpu0->cpu0_DTLB TOTAL        ACCESS:      23529 HIT:      23432 MISS:         97 MSHR_MERGE:         47
cpu0->cpu0_DTLB LOAD         ACCESS:      23529 HIT:      23432 MISS:         97 MSHR_MERGE:         47
cpu0->cpu0_DTLB RFO          ACCESS:          0 HIT:          0 MISS:          0 MSHR_MERGE:          0
cpu0->cpu0_DTLB PREFETCH     ACCESS:          0 HIT:          0 MISS:          0 MSHR_MERGE:          0
cpu0->cpu0_DTLB WRITE        ACCESS:          0 HIT:          0 MISS:          0 MSHR_MERGE:          0
cpu0->cpu0_DTLB TRANSLATION  ACCESS:          0 HIT:          0 MISS:          0 MSHR_MERGE:          0
cpu0->cpu0_DTLB PREFETCH REQUESTED:          0 ISSUED:          0 USEFUL:          0 USELESS:          0
cpu0->cpu0_DTLB AVERAGE MISS LATENCY: 186 cycles
cpu0->LLC TOTAL        ACCESS:        881 HIT:          0 MISS:        881 MSHR_MERGE:          0
cpu0->LLC LOAD         ACCESS:        694 HIT:          0 MISS:        694 MSHR_MERGE:          0
cpu0->LLC RFO          ACCESS:         73 HIT:          0 MISS:         73 MSHR_MERGE:          0
cpu0->LLC PREFETCH     ACCESS:          0 HIT:          0 MISS:          0 MSHR_MERGE:          0
cpu0->LLC WRITE        ACCESS:          0 HIT:          0 MISS:          0 MSHR_MERGE:          0
cpu0->LLC TRANSLATION  ACCESS:        114 HIT:          0 MISS:        114 MSHR_MERGE:          0
cpu0->LLC PREFETCH REQUESTED:          0 ISSUED:          0 USEFUL:          0 USELESS:          0
cpu0->LLC AVERAGE MISS LATENCY: 182.6 cycles

DRAM Statistics

Channel 0 RQ ROW_BUFFER_HIT:         21
  ROW_BUFFER_MISS:        860
  AVG DBUS CONGESTED CYCLE: 2.935
Channel 0 WQ ROW_BUFFER_HIT:          0
  ROW_BUFFER_MISS:          0
  FULL:          0
Channel 0 REFRESHES ISSUED:         17
